<?xml version="1.0" encoding="UTF-8"?>

<!-- generated on 2026-07-10 14:44:47.034138 by Exclipse SUMO sumo 1.27.0 (VIA .XOSC CONVERSION)
-->
<routes xmlns:xsi="http://www.w3.org/2001/XMLSchema-instance" xsi:noNamespaceSchemaLocation="http://sumo.dlr.de/xsd/routes_file.xsd">
	<vehicle id="ego_vehicle" depart="0.0" departSpeed="0.0">
		<route edges="89" />
	</vehicle>
</routes>