<?xml version="1.0" encoding="UTF-8"?>

<!-- generated on 2026-06-29 13:40:45.513711 by Exclipse SUMO sumo 1.27.0 (VIA .XOSC CONVERSION)
-->
<routes xmlns:xsi="http://www.w3.org/2001/XMLSchema-instance" xsi:noNamespaceSchemaLocation="http://sumo.dlr.de/xsd/routes_file.xsd">
	<vehicle id="Ego" color="255,255,255" depart="0.0" departSpeed="30" departLane="0" departPos="50">
		<route edges="-1" />
	</vehicle>
	<vehicle id="Lead" depart="0.0" departSpeed="1" departLane="0" departPos="200">
		<route edges="-1" />
	</vehicle>
</routes>