<?xml version="1.0" encoding="UTF-8"?>

<!-- generated on 2026-07-01T16:46:19.689121+01:00 by Eclipse SUMO netconvert 1.27.1
<netconvertConfiguration xmlns:xsi="http://www.w3.org/2001/XMLSchema-instance" xsi:noNamespaceSchemaLocation="http://sumo.dlr.de/xsd/netconvertConfiguration.xsd">

    <input>
        <opendrive-files value="campus.xodr"/>
    </input>

    <output>
        <output-file value="../netconvert_nets/campus.net.xml"/>
        <output.original-names value="true"/>
    </output>

    <junctions>
        <no-turnarounds.except-deadend value="true"/>
    </junctions>

</netconvertConfiguration>
-->

<net version="1.20" junctionCornerDetail="5" rectangularLaneCut="true" limitTurnSpeed="5.50" xmlns:xsi="http://www.w3.org/2001/XMLSchema-instance" xsi:noNamespaceSchemaLocation="http://sumo.dlr.de/xsd/net_file.xsd">

    <location netOffset="352.21,801.99" convBoundary="0.00,0.00,708.16,1519.34" origBoundary="0.000000,0.000000,0.000000,0.000000" projParameter="+proj=tmerc +lat_0=50.785562924295 +lon_0=6.04648796549892 +k=1 +x_0=0 +y_0=0 +datum=WGS84 +units=m +vunits=m +no_defs"/>

    <type id="driving" priority="1" speed="13.89" disallow="pedestrian tram rail_urban rail rail_electric rail_fast ship container cable_car subway aircraft wheelchair scooter drone" width="3.65"/>

    <edge id=":11657.begin_0" function="internal">
        <lane id=":11657.begin_0_0" index="0" disallow="pedestrian tram rail_urban rail rail_electric rail_fast ship container cable_car subway aircraft wheelchair scooter drone" speed="2.22" length="4.91" width="3.21" shape="457.53,1019.42,250.02 458.38,1018.17,250.02 459.23,1017.76,250.02 460.07,1018.19,250.02 460.89,1019.46,250.02"/>
    </edge>
    <edge id=":11658.begin_0" function="internal">
        <lane id=":11658.begin_0_0" index="0" disallow="pedestrian tram rail_urban rail rail_electric rail_fast ship container cable_car subway aircraft wheelchair scooter drone" speed="2.22" length="5.17" width="3.58" shape="460.77,1094.39,249.76 459.90,1095.73,249.76 459.03,1096.19,249.76 458.13,1095.76,249.76 457.23,1094.45,249.76"/>
    </edge>
    <edge id=":11659.begin_0" function="internal">
        <lane id=":11659.begin_0_0" index="0" disallow="pedestrian tram rail_urban rail rail_electric rail_fast ship container cable_car subway aircraft wheelchair scooter drone" speed="2.22" length="5.36" width="3.74" shape="404.44,1112.01,252.26 403.05,1111.11,252.26 402.59,1110.20,252.26 403.04,1109.27,252.26 404.40,1108.34,252.26"/>
    </edge>
    <edge id=":11661#1_0" function="internal">
        <lane id=":11661#1_0_0" index="0" disallow="pedestrian tram rail_urban rail rail_electric rail_fast ship container cable_car subway aircraft wheelchair scooter drone" speed="2.22" length="3.00" width="3.95" shape="502.08,1181.65,250.69 500.19,1179.32,250.66"/>
    </edge>
    <edge id=":11661#1_1" function="internal">
        <lane id=":11661#1_1_0" index="0" disallow="pedestrian tram rail_urban rail rail_electric rail_fast ship container cable_car subway aircraft wheelchair scooter drone" speed="2.22" length="3.02" width="3.07" shape="503.18,1177.01,250.66 503.70,1177.74,250.67 503.99,1178.28,250.68 504.29,1178.82,250.68 504.80,1179.55,250.69"/>
    </edge>
    <edge id=":11662.end_0" function="internal">
        <lane id=":11662.end_0_0" index="0" disallow="pedestrian tram rail_urban rail rail_electric rail_fast ship container cable_car subway aircraft wheelchair scooter drone" speed="2.22" length="5.21" width="3.61" shape="559.29,1253.06,251.45 559.39,1254.66,251.45 558.95,1255.56,251.45 557.97,1255.74,251.45 556.45,1255.21,251.45"/>
    </edge>
    <edge id=":11663.begin_0" function="internal">
        <lane id=":11663.begin_0_0" index="0" disallow="pedestrian tram rail_urban rail rail_electric rail_fast ship container cable_car subway aircraft wheelchair scooter drone" speed="2.22" length="4.49" width="3.09" shape="586.38,1196.26,248.00 587.64,1196.84,248.00 588.14,1197.53,248.00 587.88,1198.35,248.00 586.87,1199.29,248.00"/>
    </edge>
    <edge id=":11664#1_0" function="internal">
        <lane id=":11664#1_0_0" index="0" disallow="pedestrian tram rail_urban rail rail_electric rail_fast ship container cable_car subway aircraft wheelchair scooter drone" speed="2.22" length="3.01" width="1.93" shape="468.99,1278.19,250.59 466.49,1279.86,250.50"/>
    </edge>
    <edge id=":11664#1_1" function="internal">
        <lane id=":11664#1_1_0" index="0" disallow="pedestrian tram rail_urban rail rail_electric rail_fast ship container cable_car subway aircraft wheelchair scooter drone" speed="2.22" length="3.00" width="2.36" shape="465.31,1278.26,250.50 467.61,1276.35,250.59"/>
    </edge>
    <edge id=":117.100_0" function="internal">
        <lane id=":117.100_0_0" index="0" disallow="pedestrian tram rail_urban rail rail_electric rail_fast ship container cable_car subway aircraft wheelchair scooter drone" speed="10.00" length="3.04" width="2.56" shape="632.59,731.82,249.46 629.56,731.87,249.63"/>
    </edge>
    <edge id=":117.100_1" function="internal">
        <lane id=":117.100_1_0" index="0" disallow="pedestrian tram rail_urban rail rail_electric rail_fast ship container cable_car subway aircraft wheelchair scooter drone" speed="10.00" length="3.03" width="2.27" shape="629.52,729.36,249.63 632.55,729.40,249.46"/>
    </edge>
    <edge id=":118.117_0" function="internal">
        <lane id=":118.117_0_0" index="0" disallow="pedestrian tram rail_urban rail rail_electric rail_fast ship container cable_car subway aircraft wheelchair scooter drone" speed="10.00" length="2.94" width="2.47" shape="625.93,731.94,249.69 622.99,731.88,249.69"/>
    </edge>
    <edge id=":118.117_1" function="internal">
        <lane id=":118.117_1_0" index="0" disallow="pedestrian tram rail_urban rail rail_electric rail_fast ship container cable_car subway aircraft wheelchair scooter drone" speed="17.78" length="2.82" width="2.46" shape="623.08,729.41,249.69 625.90,729.43,249.69"/>
    </edge>
    <edge id=":118.end_0" function="internal">
        <lane id=":118.end_0_0" index="0" disallow="pedestrian tram rail_urban rail rail_electric rail_fast ship container cable_car subway aircraft wheelchair scooter drone" speed="3.21" length="3.61" width="2.47" shape="528.04,732.09,250.64 527.09,731.50,250.64 526.75,730.90,250.64 527.04,730.27,250.64 527.94,729.61,250.64"/>
    </edge>
    <edge id=":19510.11656_0" function="internal">
        <lane id=":19510.11656_0_0" index="0" disallow="pedestrian tram rail_urban rail rail_electric rail_fast ship container cable_car subway aircraft wheelchair scooter drone" speed="3.61" length="7.99" width="3.32" shape="403.18,1057.65,251.81 395.22,1057.15,252.13"/>
    </edge>
    <edge id=":19510.11656_1" function="internal">
        <lane id=":19510.11656_1_0" index="0" disallow="pedestrian tram rail_urban rail rail_electric rail_fast ship container cable_car subway aircraft wheelchair scooter drone" speed="3.61" length="7.95" width="3.32" shape="395.35,1053.85,252.13 403.29,1054.14,251.81"/>
    </edge>
    <edge id=":19515.19514_0" function="internal">
        <lane id=":19515.19514_0_0" index="0" disallow="pedestrian tram rail_urban rail rail_electric rail_fast ship container cable_car subway aircraft wheelchair scooter drone" speed="2.22" length="2.96" width="3.67" shape="348.64,884.37,254.17 348.18,885.12,254.17 347.82,885.60,254.17 347.44,886.07,254.17 346.94,886.79,254.18"/>
    </edge>
    <edge id=":19515.19514_1" function="internal">
        <lane id=":19515.19514_1_0" index="0" disallow="pedestrian tram rail_urban rail rail_electric rail_fast ship container cable_car subway aircraft wheelchair scooter drone" speed="2.22" length="2.70" width="4.25" shape="343.37,884.44,254.18 345.03,882.31,254.17"/>
    </edge>
    <edge id=":19516.19509_0" function="internal">
        <lane id=":19516.19509_0_0" index="0" disallow="pedestrian tram rail_urban rail rail_electric rail_fast ship container cable_car subway aircraft wheelchair scooter drone" speed="3.61" length="2.20" width="3.64" shape="305.93,333.75,259.60 305.57,334.30,259.62 305.35,334.69,259.63 305.09,335.06,259.64 304.63,335.51,259.66"/>
    </edge>
    <edge id=":19516.19509_1" function="internal">
        <lane id=":19516.19509_1_0" index="0" disallow="pedestrian tram rail_urban rail rail_electric rail_fast ship container cable_car subway aircraft wheelchair scooter drone" speed="3.61" length="1.40" width="3.71" shape="301.25,331.63,259.65 301.43,330.45,259.62"/>
        <lane id=":19516.19509_1_1" index="1" disallow="all" speed="17.78" length="1.40" width="2.07" shape="302.87,333.49,259.65 303.20,333.15,259.64 303.38,332.88,259.63 303.54,332.59,259.63 303.80,332.19,259.61"/>
    </edge>
    <edge id=":2097664_0" function="internal">
        <lane id=":2097664_0_0" index="0" disallow="pedestrian tram rail_urban rail rail_electric rail_fast ship container cable_car subway aircraft wheelchair scooter drone" speed="2.92" length="20.49" width="3.70" shape="457.24,1071.08,249.63 456.53,1064.88,249.77 454.40,1060.51,249.88 450.85,1057.97,249.98 445.89,1057.26,250.09">
            <param key="origId" value="11676_-1"/>
        </lane>
    </edge>
    <edge id=":2097664_1" function="internal">
        <lane id=":2097664_1_0" index="0" disallow="pedestrian tram rail_urban rail rail_electric rail_fast ship container cable_car subway aircraft wheelchair scooter drone" speed="2.22" length="24.09" width="3.52" shape="457.24,1071.08,249.63 457.93,1047.00,249.60">
            <param key="origId" value="11671_-1"/>
        </lane>
    </edge>
    <edge id=":2097664_2" function="internal">
        <lane id=":2097664_2_0" index="0" disallow="pedestrian tram rail_urban rail rail_electric rail_fast ship container cable_car subway aircraft wheelchair scooter drone" speed="2.92" length="7.90" width="3.35" shape="457.24,1071.08,249.63 458.12,1063.55,249.47 458.25,1063.26,249.46">
            <param key="origId" value="2120819_-1"/>
        </lane>
    </edge>
    <edge id=":2097664_12" function="internal">
        <lane id=":2097664_12_0" index="0" disallow="pedestrian tram rail_urban rail rail_electric rail_fast ship container cable_car subway aircraft wheelchair scooter drone" speed="2.92" length="18.36" width="3.35" shape="458.25,1063.26,249.46 460.76,1057.83,249.33 465.17,1053.94,249.20 471.34,1051.88,249.06">
            <param key="origId" value="2120819_-1"/>
        </lane>
    </edge>
    <edge id=":2097664_3" function="internal">
        <lane id=":2097664_3_0" index="0" disallow="pedestrian tram rail_urban rail rail_electric rail_fast ship container cable_car subway aircraft wheelchair scooter drone" speed="2.92" length="21.23" width="3.49" shape="471.91,1055.35,249.06 467.04,1057.02,249.20 463.56,1060.20,249.32 461.47,1064.88,249.46 460.78,1071.08,249.63">
            <param key="origId" value="11669_1"/>
        </lane>
    </edge>
    <edge id=":2097664_4" function="internal">
        <lane id=":2097664_4_0" index="0" disallow="pedestrian tram rail_urban rail rail_electric rail_fast ship container cable_car subway aircraft wheelchair scooter drone" speed="3.61" length="26.12" width="3.70" shape="471.91,1055.35,249.06 466.46,1055.96,249.28 458.92,1056.54,249.57 451.37,1057.00,249.87 445.89,1057.26,250.09">
            <param key="origId" value="2120824_1"/>
        </lane>
    </edge>
    <edge id=":2097664_5" function="internal">
        <lane id=":2097664_5_0" index="0" disallow="pedestrian tram rail_urban rail rail_electric rail_fast ship container cable_car subway aircraft wheelchair scooter drone" speed="2.92" length="18.95" width="3.52" shape="471.91,1055.35,249.06 466.02,1055.65,249.23 461.72,1054.36,249.36 459.03,1051.48,249.47 457.93,1047.00,249.60">
            <param key="origId" value="2120814_1"/>
        </lane>
    </edge>
    <edge id=":2097664_6" function="internal">
        <lane id=":2097664_6_0" index="0" disallow="pedestrian tram rail_urban rail rail_electric rail_fast ship container cable_car subway aircraft wheelchair scooter drone" speed="2.92" length="13.00" width="3.35" shape="461.29,1046.81,249.60 462.06,1049.62,249.48 463.99,1051.40,249.37 467.08,1052.15,249.24 471.34,1051.88,249.06">
            <param key="origId" value="11668_-1"/>
        </lane>
    </edge>
    <edge id=":2097664_7" function="internal">
        <lane id=":2097664_7_0" index="0" disallow="pedestrian tram rail_urban rail rail_electric rail_fast ship container cable_car subway aircraft wheelchair scooter drone" speed="2.22" length="24.28" width="3.49" shape="461.29,1046.81,249.60 460.78,1071.08,249.63">
            <param key="origId" value="2120828_-1"/>
        </lane>
    </edge>
    <edge id=":2097664_8" function="internal">
        <lane id=":2097664_8_0" index="0" disallow="pedestrian tram rail_urban rail rail_electric rail_fast ship container cable_car subway aircraft wheelchair scooter drone" speed="2.92" length="4.42" width="3.70" shape="461.29,1046.81,249.60 460.54,1051.17,249.70">
            <param key="origId" value="2120832_-1"/>
        </lane>
    </edge>
    <edge id=":2097664_13" function="internal">
        <lane id=":2097664_13_0" index="0" disallow="pedestrian tram rail_urban rail rail_electric rail_fast ship container cable_car subway aircraft wheelchair scooter drone" speed="2.92" length="16.55" width="3.70" shape="460.54,1051.17,249.70 457.72,1054.36,249.80 452.83,1056.39,249.93 445.89,1057.26,250.09">
            <param key="origId" value="2120832_-1"/>
        </lane>
    </edge>
    <edge id=":2097664_9" function="internal">
        <lane id=":2097664_9_0" index="0" disallow="pedestrian tram rail_urban rail rail_electric rail_fast ship container cable_car subway aircraft wheelchair scooter drone" speed="2.92" length="15.46" width="3.52" shape="445.76,1053.75,250.09 451.22,1053.16,249.92 455.07,1051.84,249.79 457.31,1049.78,249.69 457.93,1047.00,249.60">
            <param key="origId" value="11672_1"/>
        </lane>
    </edge>
    <edge id=":2097664_10" function="internal">
        <lane id=":2097664_10_0" index="0" disallow="pedestrian tram rail_urban rail rail_electric rail_fast ship container cable_car subway aircraft wheelchair scooter drone" speed="3.61" length="25.67" width="3.35" shape="445.76,1053.75,250.09 451.17,1053.49,249.87 458.57,1053.05,249.57 465.96,1052.48,249.28 471.34,1051.88,249.06">
            <param key="origId" value="11670_1"/>
        </lane>
    </edge>
    <edge id=":2097664_11" function="internal">
        <lane id=":2097664_11_0" index="0" disallow="pedestrian tram rail_urban rail rail_electric rail_fast ship container cable_car subway aircraft wheelchair scooter drone" speed="2.92" length="26.31" width="3.49" shape="445.76,1053.75,250.09 452.33,1054.63,249.97 457.02,1057.81,249.87 459.84,1063.29,249.77 460.78,1071.08,249.63">
            <param key="origId" value="2120850_1"/>
        </lane>
    </edge>
    <edge id=":2098114_0" function="internal">
        <lane id=":2098114_0_0" index="0" disallow="pedestrian tram rail_urban rail rail_electric rail_fast ship container cable_car subway aircraft wheelchair scooter drone" speed="2.92" length="43.22" width="4.05" shape="303.80,336.34,260.49 301.75,343.85,260.58 300.67,357.25,260.73 300.24,370.92,260.89 300.15,379.23,260.98">
            <param key="origId" value="19520_-1"/>
        </lane>
    </edge>
    <edge id=":2098114_1" function="internal">
        <lane id=":2098114_1_0" index="0" disallow="pedestrian tram rail_urban rail rail_electric rail_fast ship container cable_car subway aircraft wheelchair scooter drone" speed="3.61" length="43.07" width="3.50" shape="303.80,336.34,260.49 299.07,342.92,260.57 291.83,354.21,260.70 284.65,365.55,260.84 280.09,372.29,260.92">
            <param key="origId" value="19518_-1"/>
        </lane>
    </edge>
    <edge id=":2098114_2" function="internal">
        <lane id=":2098114_2_0" index="0" disallow="pedestrian tram rail_urban rail rail_electric rail_fast ship container cable_car subway aircraft wheelchair scooter drone" speed="3.61" length="43.68" width="3.21" shape="277.12,369.81,260.92 281.08,363.40,260.85 287.19,352.51,260.72 294.02,341.00,260.59 300.12,332.74,260.49">
            <param key="origId" value="2120880_-1"/>
        </lane>
    </edge>
    <edge id=":2098114_3" function="internal">
        <lane id=":2098114_3_0" index="0" disallow="pedestrian tram rail_urban rail rail_electric rail_fast ship container cable_car subway aircraft wheelchair scooter drone" speed="2.92" length="3.39" width="4.05" shape="277.12,369.81,260.92 279.93,367.92,260.93">
            <param key="origId" value="2120887_-1"/>
        </lane>
    </edge>
    <edge id=":2098114_6" function="internal">
        <lane id=":2098114_6_0" index="0" disallow="pedestrian tram rail_urban rail rail_electric rail_fast ship container cable_car subway aircraft wheelchair scooter drone" speed="2.92" length="29.85" width="4.05" shape="279.93,367.92,260.93 284.46,364.86,260.94 291.98,365.35,260.95 297.82,370.43,260.96 300.15,379.23,260.98">
            <param key="origId" value="2120887_-1"/>
        </lane>
    </edge>
    <edge id=":2098114_4" function="internal">
        <lane id=":2098114_4_0" index="0" disallow="pedestrian tram rail_urban rail rail_electric rail_fast ship container cable_car subway aircraft wheelchair scooter drone" speed="2.92" length="30.58" width="3.50" shape="296.00,379.21,260.98 295.05,368.97,260.96 292.09,364.41,260.95 287.10,365.51,260.94 280.09,372.29,260.92">
            <param key="origId" value="19519_-1"/>
        </lane>
    </edge>
    <edge id=":2098114_5" function="internal">
        <lane id=":2098114_5_0" index="0" disallow="pedestrian tram rail_urban rail rail_electric rail_fast ship container cable_car subway aircraft wheelchair scooter drone" speed="2.92" length="47.18" width="3.21" shape="296.00,379.21,260.98 295.67,370.84,260.89 295.44,356.77,260.75 296.52,342.31,260.60 300.12,332.74,260.49">
            <param key="origId" value="2120893_-1"/>
        </lane>
    </edge>
    <edge id=":2098115_0" function="internal">
        <lane id=":2098115_0_0" index="0" disallow="pedestrian tram rail_urban rail rail_electric rail_fast ship container cable_car subway aircraft wheelchair scooter drone" speed="3.61" length="24.46" width="3.31" shape="319.76,1046.46,255.12 312.78,1044.19,255.43 306.42,1041.91,255.71 301.02,1039.75,255.95 296.93,1037.82,256.14">
            <param key="origId" value="2120896_1"/>
        </lane>
    </edge>
    <edge id=":2098115_1" function="internal">
        <lane id=":2098115_1_0" index="0" disallow="pedestrian tram rail_urban rail rail_electric rail_fast ship container cable_car subway aircraft wheelchair scooter drone" speed="2.92" length="4.69" width="3.41" shape="319.76,1046.46,255.12 315.60,1044.28,255.16">
            <param key="origId" value="2120903_1"/>
        </lane>
    </edge>
    <edge id=":2098115_6" function="internal">
        <lane id=":2098115_6_0" index="0" disallow="pedestrian tram rail_urban rail rail_electric rail_fast ship container cable_car subway aircraft wheelchair scooter drone" speed="2.92" length="17.87" width="3.41" shape="315.60,1044.28,255.16 315.31,1044.13,255.16 312.16,1040.28,255.20 310.29,1034.92,255.24 309.73,1028.05,255.29">
            <param key="origId" value="2120903_1"/>
        </lane>
    </edge>
    <edge id=":2098115_2" function="internal">
        <lane id=":2098115_2_0" index="0" disallow="pedestrian tram rail_urban rail rail_electric rail_fast ship container cable_car subway aircraft wheelchair scooter drone" speed="2.92" length="18.17" width="3.29" shape="313.28,1028.09,255.29 313.70,1033.86,255.24 315.08,1038.33,255.19 317.42,1041.47,255.16 320.74,1043.31,255.12">
            <param key="origId" value="19523_1"/>
        </lane>
    </edge>
    <edge id=":2098115_3" function="internal">
        <lane id=":2098115_3_0" index="0" disallow="pedestrian tram rail_urban rail rail_electric rail_fast ship container cable_car subway aircraft wheelchair scooter drone" speed="2.92" length="25.40" width="3.31" shape="313.28,1028.09,255.29 312.19,1035.56,255.54 309.10,1039.67,255.72 304.01,1040.43,255.89 296.93,1037.82,256.14">
            <param key="origId" value="2120900_1"/>
        </lane>
    </edge>
    <edge id=":2098115_4" function="internal">
        <lane id=":2098115_4_0" index="0" disallow="pedestrian tram rail_urban rail rail_electric rail_fast ship container cable_car subway aircraft wheelchair scooter drone" speed="2.22" length="17.61" width="3.41" shape="298.47,1034.92,256.14 303.34,1036.70,255.89 306.85,1036.15,255.72 308.97,1033.27,255.54 309.73,1028.05,255.29">
            <param key="origId" value="19522_-1"/>
        </lane>
    </edge>
    <edge id=":2098115_5" function="internal">
        <lane id=":2098115_5_0" index="0" disallow="pedestrian tram rail_urban rail rail_electric rail_fast ship container cable_car subway aircraft wheelchair scooter drone" speed="2.92" length="23.84" width="3.29" shape="298.47,1034.92,256.14 303.14,1037.01,255.92 309.47,1039.44,255.63 315.86,1041.70,255.34 320.74,1043.31,255.12">
            <param key="origId" value="19521_-1"/>
        </lane>
    </edge>
    <edge id=":2098127_0" function="internal">
        <lane id=":2098127_0_0" index="0" disallow="pedestrian tram rail_urban rail rail_electric rail_fast ship container cable_car subway aircraft wheelchair scooter drone" speed="2.22" length="16.38" width="3.65" shape="309.68,980.94,254.82 309.90,964.56,254.66">
            <param key="origId" value="66351_-1"/>
        </lane>
    </edge>
    <edge id=":2098127_1" function="internal">
        <lane id=":2098127_1_0" index="0" disallow="pedestrian tram rail_urban rail rail_electric rail_fast ship container cable_car subway aircraft wheelchair scooter drone" speed="1.39" length="4.55" width="3.20" shape="309.68,980.94,254.82 310.34,976.70,254.81 310.48,976.49,254.81">
            <param key="origId" value="2121032_-1"/>
        </lane>
    </edge>
    <edge id=":2098127_6" function="internal">
        <lane id=":2098127_6_0" index="0" disallow="pedestrian tram rail_urban rail rail_electric rail_fast ship container cable_car subway aircraft wheelchair scooter drone" speed="1.39" length="11.89" width="3.20" shape="310.48,976.49,254.81 312.34,973.66,254.80 315.66,971.82,254.78 320.32,971.17,254.77">
            <param key="origId" value="2121032_-1"/>
        </lane>
    </edge>
    <edge id=":2098127_2" function="internal">
        <lane id=":2098127_2_0" index="0" disallow="pedestrian tram rail_urban rail rail_electric rail_fast ship container cable_car subway aircraft wheelchair scooter drone" speed="1.39" length="11.05" width="3.70" shape="320.36,974.34,254.77 317.24,974.78,254.78 315.01,976.02,254.80 313.67,978.08,254.81 313.23,980.94,254.82">
            <param key="origId" value="66387_1"/>
        </lane>
    </edge>
    <edge id=":2098127_3" function="internal">
        <lane id=":2098127_3_0" index="0" disallow="pedestrian tram rail_urban rail rail_electric rail_fast ship container cable_car subway aircraft wheelchair scooter drone" speed="1.39" length="16.36" width="3.65" shape="320.36,974.34,254.77 315.78,973.77,254.74 312.51,971.95,254.71 310.55,968.88,254.69 309.90,964.56,254.66">
            <param key="origId" value="66405_1"/>
        </lane>
    </edge>
    <edge id=":2098127_4" function="internal">
        <lane id=":2098127_4_0" index="0" disallow="pedestrian tram rail_urban rail rail_electric rail_fast ship container cable_car subway aircraft wheelchair scooter drone" speed="1.39" length="10.86" width="3.20" shape="313.50,964.56,254.66 313.92,967.48,254.69 315.20,969.55,254.71 317.34,970.78,254.74 320.32,971.17,254.77">
            <param key="origId" value="2121034_1"/>
        </lane>
    </edge>
    <edge id=":2098127_5" function="internal">
        <lane id=":2098127_5_0" index="0" disallow="pedestrian tram rail_urban rail rail_electric rail_fast ship container cable_car subway aircraft wheelchair scooter drone" speed="2.22" length="16.38" width="3.70" shape="313.50,964.56,254.66 313.23,980.94,254.82">
            <param key="origId" value="2121030_1"/>
        </lane>
    </edge>
    <edge id=":2098323_0" function="internal">
        <lane id=":2098323_0_0" index="0" disallow="pedestrian tram rail_urban rail rail_electric rail_fast ship container cable_car subway aircraft wheelchair scooter drone" speed="3.61" length="27.64" width="3.41" shape="203.35,521.88,263.13 193.78,547.81,262.82">
            <param key="origId" value="29002_1"/>
        </lane>
    </edge>
    <edge id=":2098323_1" function="internal">
        <lane id=":2098323_1_0" index="0" disallow="pedestrian tram rail_urban rail rail_electric rail_fast ship container cable_car subway aircraft wheelchair scooter drone" speed="2.92" length="4.68" width="2.97" shape="203.35,521.88,263.13 201.04,525.95,263.16">
            <param key="origId" value="2120916_1"/>
        </lane>
    </edge>
    <edge id=":2098323_6" function="internal">
        <lane id=":2098323_6_0" index="0" disallow="pedestrian tram rail_urban rail rail_electric rail_fast ship container cable_car subway aircraft wheelchair scooter drone" speed="2.92" length="22.97" width="2.97" shape="201.04,525.95,263.16 200.13,527.55,263.18 195.33,531.62,263.22 188.95,534.08,263.27 181.00,534.92,263.33">
            <param key="origId" value="2120916_1"/>
        </lane>
    </edge>
    <edge id=":2098323_2" function="internal">
        <lane id=":2098323_2_0" index="0" disallow="pedestrian tram rail_urban rail rail_electric rail_fast ship container cable_car subway aircraft wheelchair scooter drone" speed="2.92" length="23.59" width="3.67" shape="180.98,531.73,263.33 187.80,531.01,263.27 193.26,528.92,263.22 197.35,525.47,263.18 200.09,520.66,263.13">
            <param key="origId" value="29004_-1"/>
        </lane>
    </edge>
    <edge id=":2098323_3" function="internal">
        <lane id=":2098323_3_0" index="0" disallow="pedestrian tram rail_urban rail rail_electric rail_fast ship container cable_car subway aircraft wheelchair scooter drone" speed="2.92" length="25.72" width="3.41" shape="180.98,531.73,263.33 188.59,532.70,263.18 193.26,535.70,263.07 194.99,540.74,262.96 193.78,547.81,262.82">
            <param key="origId" value="2120909_-1"/>
        </lane>
    </edge>
    <edge id=":2098323_4" function="internal">
        <lane id=":2098323_4_0" index="0" disallow="pedestrian tram rail_urban rail rail_electric rail_fast ship container cable_car subway aircraft wheelchair scooter drone" speed="2.92" length="18.91" width="2.97" shape="190.46,546.71,262.82 191.34,541.53,262.96 190.05,537.84,263.07 186.61,535.64,263.18 181.00,534.92,263.33">
            <param key="origId" value="29003_1"/>
        </lane>
    </edge>
    <edge id=":2098323_5" function="internal">
        <lane id=":2098323_5_0" index="0" disallow="pedestrian tram rail_urban rail rail_electric rail_fast ship container cable_car subway aircraft wheelchair scooter drone" speed="3.61" length="27.78" width="3.67" shape="190.46,546.71,262.82 200.09,520.66,263.13">
            <param key="origId" value="2120906_1"/>
        </lane>
    </edge>
    <edge id=":2098332_0" function="internal">
        <lane id=":2098332_0_0" index="0" disallow="pedestrian tram rail_urban rail rail_electric rail_fast ship container cable_car subway aircraft wheelchair scooter drone" speed="3.61" length="22.72" width="3.27" shape="165.70,648.41,261.05 164.61,653.25,260.97 163.27,659.51,260.86 162.02,665.79,260.76 161.22,670.68,260.68">
            <param key="origId" value="29006_-1"/>
        </lane>
    </edge>
    <edge id=":2098332_1" function="internal">
        <lane id=":2098332_1_0" index="0" disallow="pedestrian tram rail_urban rail rail_electric rail_fast ship container cable_car subway aircraft wheelchair scooter drone" speed="2.92" length="4.60" width="3.41" shape="165.70,648.41,261.05 163.86,652.63,261.07">
            <param key="origId" value="2120919_-1"/>
        </lane>
    </edge>
    <edge id=":2098332_6" function="internal">
        <lane id=":2098332_6_0" index="0" disallow="pedestrian tram rail_urban rail rail_electric rail_fast ship container cable_car subway aircraft wheelchair scooter drone" speed="2.92" length="18.17" width="3.41" shape="163.86,652.63,261.07 163.66,653.10,261.08 159.99,656.50,261.10 154.70,658.62,261.13 147.79,659.44,261.17">
            <param key="origId" value="2120919_-1"/>
        </lane>
    </edge>
    <edge id=":2098332_2" function="internal">
        <lane id=":2098332_2_0" index="0" disallow="pedestrian tram rail_urban rail rail_electric rail_fast ship container cable_car subway aircraft wheelchair scooter drone" speed="2.92" length="18.09" width="3.59" shape="147.71,655.88,261.17 153.40,655.26,261.13 157.73,653.67,261.10 160.69,651.13,261.08 162.29,647.63,261.05">
            <param key="origId" value="29005_1"/>
        </lane>
    </edge>
    <edge id=":2098332_3" function="internal">
        <lane id=":2098332_3_0" index="0" disallow="pedestrian tram rail_urban rail rail_electric rail_fast ship container cable_car subway aircraft wheelchair scooter drone" speed="2.92" length="23.69" width="3.27" shape="147.71,655.88,261.17 154.31,656.68,261.03 158.76,659.41,260.92 161.07,664.07,260.82 161.22,670.68,260.68">
            <param key="origId" value="2120924_1"/>
        </lane>
    </edge>
    <edge id=":2098332_4" function="internal">
        <lane id=":2098332_4_0" index="0" disallow="pedestrian tram rail_urban rail rail_electric rail_fast ship container cable_car subway aircraft wheelchair scooter drone" speed="2.92" length="17.46" width="3.41" shape="157.83,670.27,260.68 157.71,665.43,260.82 155.99,662.01,260.92 152.69,660.02,261.03 147.79,659.44,261.17">
            <param key="origId" value="29007_-1"/>
        </lane>
    </edge>
    <edge id=":2098332_5" function="internal">