<?xml version="1.0" encoding="UTF-8"?>

<!-- generated on 2026-06-02T13:35:08.387487+01:00 by Eclipse SUMO netconvert 1.27.0
<netconvertConfiguration xmlns:xsi="http://www.w3.org/2001/XMLSchema-instance" xsi:noNamespaceSchemaLocation="http://sumo.dlr.de/xsd/netconvertConfiguration.xsd">

    <input>
        <opendrive-files value="aldenhoven.xodr"/>
    </input>

    <output>
        <output-file value="converted_aldenhoven.net.xml"/>
    </output>

    <junctions>
        <no-turnarounds.except-deadend value="true"/>
    </junctions>

</netconvertConfiguration>
-->

<net version="1.20" junctionCornerDetail="5" rectangularLaneCut="true" limitTurnSpeed="5.50" xmlns:xsi="http://www.w3.org/2001/XMLSchema-instance" xsi:noNamespaceSchemaLocation="http://sumo.dlr.de/xsd/net_file.xsd">

    <location netOffset="214.88,411.13" convBoundary="0.00,0.00,689.74,839.15" origBoundary="0.000000,0.000000,0.000000,0.000000" projParameter="+proj=tmerc +lat_0=50.9098472225444 +lon_0=6.22742895630397 +k=1 +x_0=0 +y_0=0 +datum=WGS84 +units=m +vunits=m +no_defs"/>

    <type id="driving" priority="1" speed="13.89" disallow="pedestrian tram rail_urban rail rail_electric rail_fast ship container cable_car subway aircraft wheelchair scooter drone" width="3.65"/>

    <edge id=":101#1_0" function="internal">
        <lane id=":101#1_0_0" index="0" disallow="pedestrian tram rail_urban rail rail_electric rail_fast ship container cable_car subway aircraft wheelchair scooter drone" speed="13.89" length="2.19" width="3.90" shape="178.54,129.51,-0.65 177.35,127.67,-0.65"/>
    </edge>
    <edge id=":101#1_1" function="internal">
        <lane id=":101#1_1_0" index="0" disallow="pedestrian tram rail_urban rail rail_electric rail_fast ship container cable_car subway aircraft wheelchair scooter drone" speed="13.89" length="2.21" width="3.70" shape="180.61,125.58,-0.65 181.74,127.48,-0.65"/>
    </edge>
    <edge id=":101#2_0" function="internal">
        <lane id=":101#2_0_0" index="0" disallow="pedestrian tram rail_urban rail rail_electric rail_fast ship container cable_car subway aircraft wheelchair scooter drone" speed="13.89" length="2.20" width="3.88" shape="179.84,131.53,-0.65 178.65,129.68,-0.65"/>
    </edge>
    <edge id=":101#2_1" function="internal">
        <lane id=":101#2_1_0" index="0" disallow="pedestrian tram rail_urban rail rail_electric rail_fast ship container cable_car subway aircraft wheelchair scooter drone" speed="13.89" length="2.20" width="3.72" shape="181.85,127.64,-0.65 183.04,129.49,-0.65"/>
    </edge>
    <edge id=":111#1_0" function="internal">
        <lane id=":111#1_0_0" index="0" disallow="pedestrian tram rail_urban rail rail_electric rail_fast ship container cable_car subway aircraft wheelchair scooter drone" speed="33.33" length="4.31" width="5.91" shape="109.33,263.17,-1.47 105.38,264.92,-1.49"/>
    </edge>
    <edge id=":116#1_0" function="internal">
        <lane id=":116#1_0_0" index="0" disallow="pedestrian tram rail_urban rail rail_electric rail_fast ship container cable_car subway aircraft wheelchair scooter drone" speed="13.89" length="2.06" width="3.38" shape="139.73,69.43,-0.65 138.62,67.70,-0.65"/>
    </edge>
    <edge id=":116#1_1" function="internal">
        <lane id=":116#1_1_0" index="0" disallow="pedestrian tram rail_urban rail rail_electric rail_fast ship container cable_car subway aircraft wheelchair scooter drone" speed="13.89" length="2.05" width="3.53" shape="141.52,65.84,-0.65 142.63,67.56,-0.65"/>
    </edge>
    <edge id=":116#2_0" function="internal">
        <lane id=":116#2_0_0" index="0" disallow="pedestrian tram rail_urban rail rail_electric rail_fast ship container cable_car subway aircraft wheelchair scooter drone" speed="13.89" length="2.04" width="3.38" shape="140.95,71.32,-0.65 139.84,69.60,-0.65"/>
    </edge>
    <edge id=":116#2_1" function="internal">
        <lane id=":116#2_1_0" index="0" disallow="pedestrian tram rail_urban rail rail_electric rail_fast ship container cable_car subway aircraft wheelchair scooter drone" speed="13.89" length="2.02" width="3.60" shape="142.74,67.73,-0.65 143.87,69.41,-0.65"/>
    </edge>
    <edge id=":12297#1_0" function="internal">
        <lane id=":12297#1_0_0" index="0" disallow="pedestrian tram rail_urban rail rail_electric rail_fast ship container cable_car subway aircraft wheelchair scooter drone" speed="33.33" length="2.90" width="3.86" shape="86.66,14.94,0.70 85.86,15.20,0.70 85.29,15.31,0.70 84.72,15.42,0.70 83.93,15.69,0.70"/>
        <lane id=":12297#1_0_1" index="1" disallow="pedestrian tram rail_urban rail rail_electric rail_fast ship container cable_car subway aircraft wheelchair scooter drone" speed="33.33" length="2.90" width="3.68" shape="85.31,11.40,0.70 84.50,11.66,0.70 83.92,11.78,0.70 83.34,11.91,0.70 82.53,12.19,0.70"/>
        <lane id=":12297#1_0_2" index="2" disallow="pedestrian tram rail_urban rail rail_electric rail_fast ship container cable_car subway aircraft wheelchair scooter drone" speed="33.33" length="2.90" width="3.36" shape="84.07,8.11,0.70 83.23,8.38,0.70 82.64,8.50,0.70 82.05,8.63,0.70 81.23,8.91,0.70"/>
    </edge>
    <edge id=":12297#2_0" function="internal">
        <lane id=":12297#2_0_0" index="0" disallow="pedestrian tram rail_urban rail rail_electric rail_fast ship container cable_car subway aircraft wheelchair scooter drone" speed="33.33" length="3.07" width="3.90" shape="171.92,18.87,1.11 171.10,18.60,1.10 170.49,18.54,1.09 169.88,18.49,1.09 169.05,18.24,1.08"/>
        <lane id=":12297#2_0_1" index="1" disallow="pedestrian tram rail_urban rail rail_electric rail_fast ship container cable_car subway aircraft wheelchair scooter drone" speed="33.33" length="3.07" width="3.68" shape="173.48,15.45,1.11 172.63,15.15,1.10 172.00,15.08,1.09 171.37,15.02,1.09 170.51,14.75,1.08"/>
        <lane id=":12297#2_0_2" index="2" disallow="pedestrian tram rail_urban rail rail_electric rail_fast ship container cable_car subway aircraft wheelchair scooter drone" speed="33.33" length="3.07" width="3.35" shape="174.94,12.26,1.11 174.06,11.95,1.10 173.41,11.86,1.09 172.76,11.79,1.09 171.87,11.50,1.08"/>
    </edge>
    <edge id=":12297#3_0" function="internal">
        <lane id=":12297#3_0_0" index="0" disallow="pedestrian tram rail_urban rail rail_electric rail_fast ship container cable_car subway aircraft wheelchair scooter drone" speed="33.33" length="3.07" width="3.86" shape="187.08,27.74,1.11 186.39,27.21,1.11 185.96,26.78,1.11 185.54,26.35,1.11 184.83,25.85,1.11"/>
        <lane id=":12297#3_0_1" index="1" disallow="pedestrian tram rail_urban rail rail_electric rail_fast ship container cable_car subway aircraft wheelchair scooter drone" speed="33.33" length="3.07" width="3.67" shape="189.16,24.59,1.11 188.43,24.04,1.11 187.99,23.59,1.11 187.53,23.16,1.11 186.79,22.63,1.11"/>
        <lane id=":12297#3_0_2" index="2" disallow="pedestrian tram rail_urban rail rail_electric rail_fast ship container cable_car subway aircraft wheelchair scooter drone" speed="33.33" length="3.07" width="3.34" shape="191.17,21.54,1.11 188.62,19.64,1.11"/>
    </edge>
    <edge id=":12297#4_0" function="internal">
        <lane id=":12297#4_0_0" index="0" disallow="pedestrian tram rail_urban rail rail_electric rail_fast ship container cable_car subway aircraft wheelchair scooter drone" speed="33.33" length="3.12" width="3.87" shape="236.43,83.39,-0.03 234.83,80.76,0.02"/>
        <lane id=":12297#4_0_1" index="1" disallow="pedestrian tram rail_urban rail rail_electric rail_fast ship container cable_car subway aircraft wheelchair scooter drone" speed="33.33" length="3.12" width="3.69" shape="239.63,81.47,-0.03 238.04,78.78,0.02"/>
        <lane id=":12297#4_0_2" index="2" disallow="pedestrian tram rail_urban rail rail_electric rail_fast ship container cable_car subway aircraft wheelchair scooter drone" speed="33.33" length="3.12" width="3.62" shape="242.76,79.59,-0.03 241.15,76.86,0.02"/>
    </edge>
    <edge id=":12298#1_0" function="internal">
        <lane id=":12298#1_0_0" index="0" disallow="pedestrian tram rail_urban rail rail_electric rail_fast ship container cable_car subway aircraft wheelchair scooter drone" speed="33.33" length="3.03" width="3.71" shape="270.12,144.73,-0.52 269.71,143.97,-0.52 269.54,143.38,-0.51 269.36,142.80,-0.51 268.94,142.05,-0.51"/>
        <lane id=":12298#1_0_1" index="1" disallow="pedestrian tram rail_urban rail rail_electric rail_fast ship container cable_car subway aircraft wheelchair scooter drone" speed="33.33" length="3.03" width="3.70" shape="273.21,142.66,-0.52 272.79,141.88,-0.52 272.60,141.29,-0.51 272.42,140.70,-0.51 271.98,139.93,-0.51"/>
        <lane id=":12298#1_0_2" index="2" disallow="pedestrian tram rail_urban rail rail_electric rail_fast ship container cable_car subway aircraft wheelchair scooter drone" speed="33.33" length="3.03" width="3.73" shape="276.30,140.59,-0.52 275.87,139.80,-0.52 275.67,139.20,-0.51 275.48,138.60,-0.51 275.03,137.81,-0.51"/>
        <lane id=":12298#1_0_3" index="3" disallow="pedestrian tram rail_urban rail rail_electric rail_fast ship container cable_car subway aircraft wheelchair scooter drone" speed="33.33" length="3.03" width="3.64" shape="279.57,138.41,-0.52 278.05,135.70,-0.51"/>
    </edge>
    <edge id=":12298#2_0" function="internal">
        <lane id=":12298#2_0_0" index="0" disallow="pedestrian tram rail_urban rail rail_electric rail_fast ship container cable_car subway aircraft wheelchair scooter drone" speed="33.33" length="3.06" width="3.71" shape="268.06,140.82,-0.50 267.63,140.06,-0.50 267.45,139.47,-0.50 267.27,138.88,-0.49 266.81,138.14,-0.49"/>
        <lane id=":12298#2_0_1" index="1" disallow="pedestrian tram rail_urban rail rail_electric rail_fast ship container cable_car subway aircraft wheelchair scooter drone" speed="33.33" length="3.06" width="3.67" shape="271.02,138.59,-0.50 270.57,137.82,-0.50 270.39,137.22,-0.50 270.19,136.62,-0.49 269.72,135.86,-0.49"/>
        <lane id=":12298#2_0_2" index="2" disallow="pedestrian tram rail_urban rail rail_electric rail_fast ship container cable_car subway aircraft wheelchair scooter drone" speed="33.33" length="3.06" width="3.74" shape="273.98,136.36,-0.50 273.51,135.57,-0.50 273.32,134.96,-0.50 273.12,134.35,-0.49 272.64,133.58,-0.49"/>
        <lane id=":12298#2_0_3" index="3" disallow="pedestrian tram rail_urban rail rail_electric rail_fast ship container cable_car subway aircraft wheelchair scooter drone" speed="33.33" length="3.06" width="3.01" shape="276.93,134.14,-0.50 276.41,133.38,-0.50 276.12,132.81,-0.50 275.82,132.25,-0.49 275.29,131.50,-0.49"/>
    </edge>
    <edge id=":12298#3_0" function="internal">
        <lane id=":12298#3_0_0" index="0" disallow="pedestrian tram rail_urban rail rail_electric rail_fast ship container cable_car subway aircraft wheelchair scooter drone" speed="33.33" length="3.25" width="3.71" shape="264.21,134.84,-0.48 263.78,134.00,-0.48 263.73,133.30,-0.48 263.68,132.60,-0.48 263.25,131.76,-0.47"/>
        <lane id=":12298#3_0_1" index="1" disallow="pedestrian tram rail_urban rail rail_electric rail_fast ship container cable_car subway aircraft wheelchair scooter drone" speed="33.33" length="3.25" width="3.74" shape="267.11,132.55,-0.48 266.68,131.71,-0.48 266.64,131.01,-0.48 266.60,130.30,-0.48 266.17,129.46,-0.47"/>
        <lane id=":12298#3_0_2" index="2" disallow="pedestrian tram rail_urban rail rail_electric rail_fast ship container cable_car subway aircraft wheelchair scooter drone" speed="33.33" length="3.25" width="3.73" shape="270.02,130.26,-0.48 269.59,129.41,-0.48 269.56,128.70,-0.48 269.53,127.99,-0.48 269.11,127.15,-0.47"/>
        <lane id=":12298#3_0_3" index="3" allow="emergency authority" speed="33.33" length="3.25" width="1.80" shape="272.66,128.17,-0.48 272.18,127.40,-0.48 271.97,126.80,-0.48 271.76,126.20,-0.48 271.28,125.43,-0.47"/>
    </edge>
    <edge id=":12298#4_0" function="internal">
        <lane id=":12298#4_0_0" index="0" disallow="pedestrian tram rail_urban rail rail_electric rail_fast ship container cable_car subway aircraft wheelchair scooter drone" speed="33.33" length="3.89" width="3.71" shape="259.98,127.56,-0.45 259.20,126.35,-0.45 258.84,125.42,-0.45 258.56,124.43,-0.44 258.00,123.08,-0.44"/>
        <lane id=":12298#4_0_1" index="1" disallow="pedestrian tram rail_urban rail rail_electric rail_fast ship container cable_car subway aircraft wheelchair scooter drone" speed="33.33" length="3.89" width="3.78" shape="262.93,125.29,-0.45 262.28,124.25,-0.45 262.02,123.44,-0.45 261.82,122.58,-0.44 261.36,121.42,-0.44"/>
        <lane id=":12298#4_0_2" index="2" disallow="pedestrian tram rail_urban rail rail_electric rail_fast ship container cable_car subway aircraft wheelchair scooter drone" speed="33.33" length="3.89" width="3.68" shape="265.89,123.02,-0.45 265.37,122.15,-0.45 265.19,121.46,-0.45 265.07,120.74,-0.44 264.70,119.77,-0.44"/>
        <lane id=":12298#4_0_3" index="3" allow="emergency authority" speed="33.33" length="3.89" width="0.53" shape="268.09,121.33,-0.45 267.57,120.64,-0.45 267.25,120.14,-0.45 266.97,119.62,-0.45 266.59,118.84,-0.44"/>
    </edge>
    <edge id=":12298#5_0" function="internal">
        <lane id=":12298#5_0_0" index="0" disallow="pedestrian tram rail_urban rail rail_electric rail_fast ship container cable_car subway aircraft wheelchair scooter drone" speed="33.33" length="8.40" width="3.71" shape="257.64,122.36,-0.44 253.89,114.84,-0.40"/>
        <lane id=":12298#5_0_1" index="1" disallow="pedestrian tram rail_urban rail rail_electric rail_fast ship container cable_car subway aircraft wheelchair scooter drone" speed="33.33" length="8.40" width="3.74" shape="260.95,120.62,-0.44 257.19,113.11,-0.40"/>
        <lane id=":12298#5_0_2" index="2" disallow="pedestrian tram rail_urban rail rail_electric rail_fast ship container cable_car subway aircraft wheelchair scooter drone" speed="33.33" length="8.40" width="3.77" shape="264.26,118.89,-0.44 260.52,111.36,-0.40"/>
    </edge>
    <edge id=":12300#1_0" function="internal">
        <lane id=":12300#1_0_0" index="0" disallow="pedestrian tram rail_urban rail rail_electric rail_fast ship container cable_car subway aircraft wheelchair scooter drone" speed="33.33" length="4.87" width="4.58" shape="53.31,315.93,-0.79 54.84,320.55,-0.80"/>
    </edge>
    <edge id=":12305#1_0" function="internal">
        <lane id=":12305#1_0_0" index="0" disallow="pedestrian tram rail_urban rail rail_electric rail_fast ship container cable_car subway aircraft wheelchair scooter drone" speed="33.33" length="3.00" width="3.71" shape="49.12,318.67,-0.61 49.84,321.59,-0.61"/>
        <lane id=":12305#1_0_1" index="1" disallow="pedestrian tram rail_urban rail rail_electric rail_fast ship container cable_car subway aircraft wheelchair scooter drone" speed="33.33" length="3.00" width="3.74" shape="45.50,319.53,-0.61 46.22,322.44,-0.61"/>
        <lane id=":12305#1_0_2" index="2" disallow="pedestrian tram rail_urban rail rail_electric rail_fast ship container cable_car subway aircraft wheelchair scooter drone" speed="33.33" length="3.00" width="3.69" shape="41.91,320.39,-0.61 42.61,323.30,-0.61"/>
    </edge>
    <edge id=":12305#2_0" function="internal">
        <lane id=":12305#2_0_0" index="0" disallow="pedestrian tram rail_urban rail rail_electric rail_fast ship container cable_car subway aircraft wheelchair scooter drone" speed="33.33" length="7.65" width="3.72" shape="79.55,446.26,-0.88 81.29,453.72,-0.91"/>
        <lane id=":12305#2_0_1" index="1" disallow="pedestrian tram rail_urban rail rail_electric rail_fast ship container cable_car subway aircraft wheelchair scooter drone" speed="33.33" length="7.65" width="3.70" shape="75.93,447.12,-0.88 77.68,454.57,-0.91"/>
        <lane id=":12305#2_0_2" index="2" disallow="pedestrian tram rail_urban rail rail_electric rail_fast ship container cable_car subway aircraft wheelchair scooter drone" speed="33.33" length="7.65" width="3.69" shape="72.31,447.98,-0.88 74.09,455.42,-0.91"/>
    </edge>
    <edge id=":12305#3_0" function="internal">
        <lane id=":12305#3_0_0" index="0" allow="emergency authority" speed="11.11" length="2.62" width="3.36" shape="84.01,453.28,-0.91 84.31,454.01,-0.91 84.69,454.43,-0.91 85.08,454.85,-0.91 85.39,455.57,-0.91"/>
        <lane id=":12305#3_0_1" index="1" disallow="pedestrian tram rail_urban rail rail_electric rail_fast ship container cable_car subway aircraft wheelchair scooter drone" speed="33.33" length="2.62" width="3.71" shape="81.34,453.91,-0.91 81.95,456.40,-0.91"/>
        <lane id=":12305#3_0_2" index="2" disallow="pedestrian tram rail_urban rail rail_electric rail_fast ship container cable_car subway aircraft wheelchair scooter drone" speed="33.33" length="2.62" width="3.71" shape="77.73,454.76,-0.91 78.34,457.28,-0.91"/>
        <lane id=":12305#3_0_3" index="3" disallow="pedestrian tram rail_urban rail rail_electric rail_fast ship container cable_car subway aircraft wheelchair scooter drone" speed="33.33" length="2.62" width="3.69" shape="74.14,455.61,-0.91 74.74,458.15,-0.91"/>
    </edge>
    <edge id=":12305#4_0" function="internal">
        <lane id=":12305#4_0_0" index="0" allow="emergency authority" speed="11.11" length="3.03" width="1.79" shape="96.00,499.88,-1.05 96.09,500.79,-1.06 95.96,501.43,-1.06 95.84,502.08,-1.06 95.93,502.99,-1.06"/>
        <lane id=":12305#4_0_1" index="1" disallow="pedestrian tram rail_urban rail rail_electric rail_fast ship container cable_car subway aircraft wheelchair scooter drone" speed="33.33" length="3.03" width="3.72" shape="92.56,500.70,-1.05 93.24,503.63,-1.06"/>
        <lane id=":12305#4_0_2" index="2" disallow="pedestrian tram rail_urban rail rail_electric rail_fast ship container cable_car subway aircraft wheelchair scooter drone" speed="33.33" length="3.03" width="3.71" shape="88.94,501.57,-1.05 89.63,504.48,-1.06"/>
        <lane id=":12305#4_0_3" index="3" disallow="pedestrian tram rail_urban rail rail_electric rail_fast ship container cable_car subway aircraft wheelchair scooter drone" speed="33.33" length="3.03" width="3.68" shape="85.34,502.43,-1.05 86.04,505.34,-1.06"/>
    </edge>
    <edge id=":12305#5_0" function="internal">
        <lane id=":12305#5_0_0" index="0" disallow="pedestrian tram rail_urban rail rail_electric rail_fast ship container cable_car subway aircraft wheelchair scooter drone" speed="33.33" length="8.00" width="3.73" shape="93.43,504.42,-1.06 95.33,512.19,-1.09"/>
        <lane id=":12305#5_0_1" index="1" disallow="pedestrian tram rail_urban rail rail_electric rail_fast ship container cable_car subway aircraft wheelchair scooter drone" speed="33.33" length="8.00" width="3.75" shape="89.82,505.28,-1.06 91.69,513.05,-1.09"/>
        <lane id=":12305#5_0_2" index="2" disallow="pedestrian tram rail_urban rail rail_electric rail_fast ship container cable_car subway aircraft wheelchair scooter drone" speed="33.33" length="8.00" width="3.68" shape="86.23,506.13,-1.06 88.08,513.92,-1.09"/>
    </edge>
    <edge id=":12307#1_0" function="internal">
        <lane id=":12307#1_0_0" index="0" disallow="pedestrian tram rail_urban rail rail_electric rail_fast ship container cable_car subway aircraft wheelchair scooter drone" speed="33.33" length="3.11" width="4.82" shape="32.45,192.79,-1.09 32.78,193.64,-1.09 33.18,194.16,-1.09 33.57,194.68,-1.09 33.90,195.53,-1.09"/>
        <lane id=":12307#1_0_1" index="1" disallow="pedestrian tram rail_urban rail rail_electric rail_fast ship container cable_car subway aircraft wheelchair scooter drone" speed="33.33" length="3.11" width="4.71" shape="27.83,193.91,-1.09 28.15,194.76,-1.09 28.55,195.28,-1.09 28.94,195.80,-1.09 29.26,196.65,-1.09"/>
        <lane id=":12307#1_0_2" index="2" allow="emergency authority" speed="33.33" length="3.11" width="1.80" shape="24.12,194.80,-1.09 24.54,195.66,-1.09 25.11,196.11,-1.09 25.68,196.56,-1.09 26.10,197.41,-1.09"/>
        <lane id=":12307#1_0_3" index="3" disallow="all" speed="11.11" length="3.11" width="2.96" shape="22.17,195.28,-1.09 22.52,196.13,-1.09 22.97,196.62,-1.09 23.43,197.12,-1.09 23.78,197.97,-1.09"/>
        <lane id=":12307#1_0_4" index="4" disallow="pedestrian tram rail_urban rail rail_electric rail_fast ship container cable_car subway aircraft wheelchair scooter drone" speed="33.33" length="3.11" width="3.74" shape="19.81,195.85,-1.09 20.53,198.76,-1.09"/>
        <lane id=":12307#1_0_5" index="5" disallow="pedestrian tram rail_urban rail rail_electric rail_fast ship container cable_car subway aircraft wheelchair scooter drone" speed="33.33" length="3.11" width="3.73" shape="16.17,196.73,-1.09 16.89,199.63,-1.09"/>
        <lane id=":12307#1_0_6" index="6" disallow="pedestrian tram rail_urban rail rail_electric rail_fast ship container cable_car subway aircraft wheelchair scooter drone" speed="33.33" length="3.11" width="3.69" shape="12.57,197.60,-1.09 13.28,200.50,-1.09"/>
    </edge>
    <edge id=":12307#2_0" function="internal">
        <lane id=":12307#2_0_0" index="0" disallow="pedestrian tram rail_urban rail rail_electric rail_fast ship container cable_car subway aircraft wheelchair scooter drone" speed="33.33" length="7.16" width="4.83" shape="34.93,199.80,-1.08 35.14,201.94,-1.08 34.84,203.45,-1.07 34.53,204.96,-1.07 34.75,207.10,-1.06"/>
        <lane id=":12307#2_0_1" index="1" disallow="pedestrian tram rail_urban rail rail_electric rail_fast ship container cable_car subway aircraft wheelchair scooter drone" speed="33.33" length="7.16" width="4.70" shape="30.30,200.92,-1.08 30.51,203.06,-1.08 30.21,204.57,-1.07 29.90,206.08,-1.07 30.11,208.22,-1.06"/>
        <lane id=":12307#2_0_2" index="2" disallow="all" speed="11.11" length="7.16" width="2.97" shape="24.82,202.25,-1.08 26.39,209.12,-1.06"/>
        <lane id=":12307#2_0_3" index="3" disallow="pedestrian tram rail_urban rail rail_electric rail_fast ship container cable_car subway aircraft wheelchair scooter drone" speed="33.33" length="7.16" width="3.73" shape="21.56,203.04,-1.08 23.13,209.91,-1.06"/>
        <lane id=":12307#2_0_4" index="4" disallow="pedestrian tram rail_urban rail rail_electric rail_fast ship container cable_car subway aircraft wheelchair scooter drone" speed="33.33" length="7.16" width="3.71" shape="17.93,203.92,-1.08 19.51,210.78,-1.06"/>
        <lane id=":12307#2_0_5" index="5" disallow="pedestrian tram rail_urban rail rail_electric rail_fast ship container cable_car subway aircraft wheelchair scooter drone" speed="33.33" length="7.16" width="3.69" shape="14.32,204.79,-1.08 15.92,211.65,-1.06"/>
    </edge>
    <edge id=":12307#3_0" function="internal">
        <lane id=":12307#3_0_0" index="0" disallow="pedestrian tram rail_urban rail rail_electric rail_fast ship container cable_car subway aircraft wheelchair scooter drone" speed="8.48" length="3.77" width="4.83" shape="34.79,207.30,-1.06 32.48,205.60,-1.04"/>
        <lane id=":12307#3_0_1" index="1" disallow="pedestrian tram rail_urban rail rail_electric rail_fast ship container cable_car subway aircraft wheelchair scooter drone" speed="5.93" length="3.77" width="4.70" shape="30.16,208.42,-1.06 28.97,208.82,-1.04"/>
        <lane id=":12307#3_0_2" index="2" disallow="all" speed="7.21" length="3.77" width="2.94" shape="26.43,209.31,-1.06 26.14,211.39,-1.04"/>
        <lane id=":12307#3_0_3" index="3" disallow="pedestrian tram rail_urban rail rail_electric rail_fast ship container cable_car subway aircraft wheelchair scooter drone" speed="9.31" length="3.77" width="3.73" shape="23.18,210.10,-1.06 23.68,213.64,-1.04"/>
        <lane id=":12307#3_0_4" index="4" disallow="pedestrian tram rail_urban rail rail_electric rail_fast ship container cable_car subway aircraft wheelchair scooter drone" speed="11.42" length="3.77" width="3.71" shape="19.56,210.97,-1.06 19.79,212.60,-1.06 19.81,213.79,-1.05 20.05,214.87,-1.05 20.93,216.15,-1.04"/>
        <lane id=":12307#3_0_5" index="5" disallow="pedestrian tram rail_urban rail rail_electric rail_fast ship container cable_car subway aircraft wheelchair scooter drone" speed="13.12" length="3.77" width="3.67" shape="15.96,211.84,-1.06 16.33,214.00,-1.06 16.50,215.55,-1.05 16.96,216.95,-1.05 18.21,218.64,-1.04"/>
    </edge>
    <edge id=":12307#4_0" function="internal">
        <lane id=":12307#4_0_0" index="0" disallow="pedestrian tram rail_urban rail rail_electric rail_fast ship container cable_car subway aircraft wheelchair scooter drone" speed="17.56" length="7.99" width="4.84" shape="32.62,205.75,-1.04 35.23,208.65,-1.04 36.82,210.84,-1.04 37.89,213.32,-1.03 38.90,217.06,-1.03"/>
        <lane id=":12307#4_0_1" index="1" disallow="pedestrian tram rail_urban rail rail_electric rail_fast ship container cable_car subway aircraft wheelchair scooter drone" speed="15.91" length="7.99" width="4.70" shape="29.10,208.96,-1.04 31.24,211.33,-1.04 32.55,213.11,-1.04 33.43,215.13,-1.03 34.27,218.19,-1.03"/>
        <lane id=":12307#4_0_2" index="2" disallow="all" speed="11.11" length="7.99" width="2.92" shape="26.28,211.54,-1.04 27.73,213.51,-1.04 28.25,215.15,-1.04 28.42,216.98,-1.03 28.84,219.50,-1.03"/>
        <lane id=":12307#4_0_3" index="3" disallow="pedestrian tram rail_urban rail rail_electric rail_fast ship container cable_car subway aircraft wheelchair scooter drone" speed="12.78" length="7.99" width="3.73" shape="23.82,213.79,-1.04 24.94,215.39,-1.04 25.27,216.74,-1.04 25.31,218.24,-1.03 25.61,220.29,-1.03"/>
        <lane id=":12307#4_0_4" index="4" disallow="pedestrian tram rail_urban rail rail_electric rail_fast ship container cable_car subway aircraft wheelchair scooter drone" speed="11.05" length="7.99" width="3.72" shape="21.07,216.30,-1.04 21.84,217.49,-1.04 21.94,218.51,-1.04 21.83,219.64,-1.03 21.99,221.16,-1.03"/>
        <lane id=":12307#4_0_5" index="5" disallow="pedestrian tram rail_urban rail rail_electric rail_fast ship container cable_car subway aircraft wheelchair scooter drone" speed="9.11" length="7.99" width="3.67" shape="18.34,218.78,-1.04 18.76,219.58,-1.04 18.64,220.27,-1.04 18.38,221.03,-1.03 18.40,222.03,-1.03"/>
    </edge>
    <edge id=":12307#5_0" function="internal">
        <lane id=":12307#5_0_0" index="0" disallow="pedestrian tram rail_urban rail rail_electric rail_fast ship container cable_car subway aircraft wheelchair scooter drone" speed="33.33" length="3.09" width="4.83" shape="39.39,219.09,-1.02 39.52,220.01,-1.02 39.46,220.66,-1.02 39.40,221.30,-1.01 39.52,222.22,-1.01"/>
        <lane id=":12307#5_0_1" index="1" disallow="pedestrian tram rail_urban rail rail_electric rail_fast ship container cable_car subway aircraft wheelchair scooter drone" speed="33.33" length="3.09" width="4.68" shape="34.76,220.21,-1.02 34.88,221.12,-1.02 34.83,221.76,-1.02 34.77,222.40,-1.01 34.89,223.31,-1.01"/>
        <lane id=":12307#5_0_2" index="2" allow="emergency authority" speed="33.33" length="3.09" width="2.94" shape="31.61,220.98,-1.02 31.65,221.92,-1.02 31.40,222.58,-1.02 31.15,223.24,-1.01 31.19,224.19,-1.01"/>
        <lane id=":12307#5_0_3" index="3" disallow="all" speed="11.11" length="3.09" width="1.17" shape="29.33,221.53,-1.02 29.42,222.45,-1.02 29.26,223.09,-1.02 29.11,223.74,-1.01 29.19,224.66,-1.01"/>
        <lane id=":12307#5_0_4" index="4" disallow="pedestrian tram rail_urban rail rail_electric rail_fast ship container cable_car subway aircraft wheelchair scooter drone" speed="33.33" length="3.09" width="3.74" shape="26.10,222.31,-1.02 26.80,225.22,-1.01"/>
        <lane id=":12307#5_0_5" index="5" disallow="pedestrian tram rail_urban rail rail_electric rail_fast ship container cable_car subway aircraft wheelchair scooter drone" speed="33.33" length="3.09" width="3.73" shape="22.48,223.19,-1.02 23.17,226.08,-1.01"/>
        <lane id=":12307#5_0_6" index="6" disallow="pedestrian tram rail_urban rail rail_electric rail_fast ship container cable_car subway aircraft wheelchair scooter drone" speed="33.33" length="3.09" width="3.67" shape="18.89,224.06,-1.02 19.57,226.93,-1.01"/>
    </edge>
    <edge id=":12307.12304_0" function="internal">
        <lane id=":12307.12304_0_0" index="0" disallow="pedestrian tram rail_urban rail rail_electric rail_fast ship container cable_car subway aircraft wheelchair scooter drone" speed="33.33" length="3.14" width="4.83" shape="40.31,225.55,-1.00 40.35,226.47,-0.99 40.11,227.11,-0.99 39.87,227.75,-0.99 39.92,228.67,-0.98"/>
        <lane id=":12307.12304_0_1" index="1" disallow="pedestrian tram rail_urban rail rail_electric rail_fast ship container cable_car subway aircraft wheelchair scooter drone" speed="33.33" length="3.14" width="4.72" shape="35.68,226.64,-1.00 35.72,227.57,-0.99 35.47,228.22,-0.99 35.23,228.87,-0.99 35.28,229.79,-0.98"/>
        <lane id=":12307.12304_0_2" index="2" disallow="pedestrian tram rail_urban rail rail_electric rail_fast ship container cable_car subway aircraft wheelchair scooter drone" speed="33.33" length="3.14" width="2.96" shape="31.97,227.52,-1.00 32.01,228.45,-0.99 31.76,229.11,-0.99 31.51,229.76,-0.99 31.55,230.70,-0.98"/>
        <lane id=":12307.12304_0_3" index="3" disallow="pedestrian tram rail_urban rail rail_electric rail_fast ship container cable_car subway aircraft wheelchair scooter drone" speed="33.33" length="3.14" width="3.74" shape="27.59,228.55,-1.00 28.30,231.48,-0.98"/>
        <lane id=":12307.12304_0_4" index="4" disallow="pedestrian tram rail_urban rail rail_electric rail_fast ship container cable_car subway aircraft wheelchair scooter drone" speed="33.33" length="3.14" width="3.73" shape="23.96,229.41,-1.00 24.67,232.36,-0.98"/>
        <lane id=":12307.12304_0_5" index="5" disallow="pedestrian tram rail_urban rail rail_electric rail_fast ship container cable_car subway aircraft wheelchair scooter drone" speed="33.33" length="3.14" width="3.67" shape="20.36,230.26,-1.00 21.07,233.23,-0.98"/>
    </edge>
    <edge id=":12307.12306_0" function="internal">