<?xml version="1.0" encoding="UTF-8"?>

<!-- generated on 2026-06-29T15:22:21.215704+01:00 by Eclipse SUMO netconvert 1.27.0
<netconvertConfiguration xmlns:xsi="http://www.w3.org/2001/XMLSchema-instance" xsi:noNamespaceSchemaLocation="http://sumo.dlr.de/xsd/netconvertConfiguration.xsd">

    <input>
        <opendrive-files value="crest-curve.xodr"/>
    </input>

    <output>
        <output-file value="crest-curve.net.xml"/>
        <output.original-names value="true"/>
    </output>

    <junctions>
        <no-turnarounds.except-deadend value="true"/>
    </junctions>

</netconvertConfiguration>
-->

<net version="1.20" junctionCornerDetail="5" rectangularLaneCut="true" limitTurnSpeed="5.50" xmlns:xsi="http://www.w3.org/2001/XMLSchema-instance" xsi:noNamespaceSchemaLocation="http://sumo.dlr.de/xsd/net_file.xsd">

    <location netOffset="0.00,154.49" convBoundary="0.00,0.00,269.29,154.49" origBoundary="0.00,-154.49,269.29,0.00" projParameter="!"/>

    <type id="driving" priority="1" speed="13.89" disallow="pedestrian tram rail_urban rail rail_electric rail_fast ship container cable_car subway aircraft wheelchair scooter drone" width="3.65"/>

    <edge id=":0.begin_0" function="internal">
        <lane id=":0.begin_0_0" index="0" disallow="pedestrian tram rail_urban rail rail_electric rail_fast ship container cable_car subway aircraft wheelchair scooter drone" speed="3.65" length="4.67" width="3.20" shape="0.00,156.09 -1.20,155.29 -1.60,154.49 -1.20,153.69 0.00,152.89"/>
    </edge>
    <edge id=":0.end_0" function="internal">
        <lane id=":0.end_0_0" index="0" disallow="pedestrian tram rail_urban rail rail_electric rail_fast ship container cable_car subway aircraft wheelchair scooter drone" speed="3.65" length="4.67" width="3.20" shape="221.53,1.58 220.48,0.60 220.21,-0.26 220.73,-0.98 222.05,-1.58"/>
    </edge>

    <edge id="-0" from="0.begin" to="0.end" priority="1" type="driving" shape="0.00,154.49 102.00,154.49 106.00,154.49 108.00,154.49 110.00,154.48 112.00,154.47 114.00,154.46 116.00,154.45 118.00,154.43 120.00,154.40 122.00,154.37 124.00,154.34 126.00,154.30 128.00,154.25 130.00,154.19 132.00,154.13 133.99,154.06 135.99,153.97 137.99,153.88 139.99,153.78 141.99,153.67 143.98,153.55 145.98,153.41 147.97,153.26 149.97,153.10 151.96,152.93 153.95,152.74 155.94,152.54 157.93,152.33 159.91,152.10 161.90,151.85 163.88,151.58 165.86,151.30 167.84,151.01 169.81,150.69 171.79,150.35 173.75,150.00 175.72,149.63 177.68,149.24 179.64,148.82 181.59,148.39 183.54,147.93 185.48,147.46 187.42,146.96 189.35,146.43 191.27,145.89 193.19,145.32 195.10,144.73 197.00,144.11 198.89,143.47 200.78,142.80,0.01 202.66,142.11,0.06 204.52,141.39,0.12 206.38,140.65,0.22 208.22,139.87,0.33 210.06,139.08,0.47 211.88,138.25,0.62 213.69,137.40,0.80 215.48,136.52,0.99 217.26,135.61,1.19 219.03,134.67,1.41 220.78,133.70,1.63 222.52,132.71,1.87 224.23,131.68,2.11 225.93,130.63,2.36 227.62,129.55,2.62 229.28,128.43,2.87 230.92,127.29,3.13 232.54,126.12,3.38 234.14,124.92,3.64 235.72,123.69,3.89 237.27,122.43,4.13 238.80,121.14,4.37 240.30,119.82,4.59 241.78,118.47,4.81 243.23,117.09,5.01 244.65,115.69,5.20 246.04,114.25,5.38 247.40,112.79,5.53 248.74,111.29,5.67 250.03,109.77,5.78 251.30,108.23,5.88 252.53,106.65,5.94 253.73,105.05,5.99 254.89,103.42,6.00 256.01,101.76,5.99 257.09,100.08,5.94 258.14,98.38,5.88 259.14,96.65,5.78 260.11,94.90,5.67 261.03,93.12,5.53 261.91,91.32,5.38 262.74,89.51,5.20 263.53,87.67,5.01 264.27,85.81,4.81 264.97,83.93,4.59 265.61,82.04,4.37 266.21,80.13,4.13 266.76,78.21,3.89 267.25,76.27,3.64 267.70,74.32,3.39 268.09,72.36,3.13 268.43,70.39,2.87 268.71,68.41,2.62 268.94,66.42,2.36 269.11,64.43,2.11 269.23,62.43,1.87 269.29,60.44,1.63 269.29,58.44,1.41 269.24,56.44,1.19 269.12,54.44,0.99 268.95,52.45,0.80 268.72,50.46,0.62 268.42,48.48,0.47 268.07,46.51,0.33 267.66,44.56,0.22 267.19,42.61,0.12 266.65,40.69,0.06 266.06,38.78,0.01 265.40,36.89 264.69,35.02 263.92,33.18 263.08,31.36 262.19,29.57 261.24,27.81 260.23,26.08 259.16,24.39 258.04,22.74 256.86,21.12 255.62,19.55 254.33,18.02 252.99,16.54 251.60,15.10 250.16,13.71 248.67,12.38 247.13,11.10 245.55,9.88 243.92,8.72 242.25,7.61 240.54,6.57 238.80,5.60 237.02,4.69 235.20,3.85 233.36,3.08 231.48,2.38 229.58,1.75 227.66,1.20 225.72,0.72 223.76,0.32 221.79,0.00">
        <lane id="-0_0" index="0" disallow="pedestrian tram rail_urban rail rail_electric rail_fast ship container cable_car subway aircraft wheelchair scooter drone" speed="13.89" length="395.85" width="3.20" shape="0.00,152.89 102.00,152.89 106.00,152.89 108.00,152.89 109.99,152.88 111.99,152.87 113.99,152.86 115.99,152.85 117.98,152.83 119.98,152.80 121.98,152.77 123.97,152.74 125.96,152.70 127.96,152.65 129.95,152.59 131.95,152.53 133.93,152.46 135.92,152.37 137.91,152.28 139.91,152.18 141.90,152.07 143.88,151.95 145.86,151.81 147.85,151.66 149.84,151.51 151.82,151.34 153.79,151.15 155.78,150.95 157.75,150.74 159.72,150.51 161.69,150.26 163.66,150.00 165.63,149.72 167.60,149.43 169.55,149.11 171.51,148.77 173.46,148.43 175.42,148.06 177.36,147.67 179.30,147.26 181.23,146.83 183.17,146.37 185.09,145.91 187.01,145.41 188.92,144.89 190.83,144.35 192.73,143.79 194.62,143.21 196.50,142.59 198.37,141.96 200.24,141.29,0.01 202.10,140.61,0.06 203.94,139.90,0.12 205.77,139.17,0.22 207.59,138.40,0.33 209.41,137.62,0.47 211.21,136.80,0.62 213.00,135.96,0.80 214.76,135.09,0.99 216.52,134.19,1.19 218.27,133.26,1.41 220.00,132.30,1.63 221.71,131.33,1.87 223.40,130.31,2.11 225.08,129.28,2.36 226.74,128.21,2.62 228.38,127.11,2.87 229.99,125.98,3.13 231.59,124.83,3.38 233.17,123.65,3.64 234.72,122.44,3.89 236.25,121.20,4.13 237.76,119.93,4.37 239.23,118.63,4.59 240.69,117.30,4.81 242.12,115.94,5.01 243.51,114.56,5.20 244.88,113.15,5.38 246.22,111.71,5.53 247.53,110.24,5.67 248.80,108.74,5.78 250.05,107.23,5.88 251.26,105.68,5.94 252.44,104.11,5.99 253.57,102.51,6.00 254.67,100.88,5.99 255.74,99.23,5.94 256.77,97.56,5.88 257.75,95.86,5.78 258.70,94.14,5.67 259.60,92.40,5.53 260.46,90.64,5.38 261.28,88.86,5.20 262.05,87.06,5.01 262.78,85.24,4.81 263.46,83.39,4.59 264.09,81.54,4.37 264.68,79.67,4.13 265.22,77.79,3.89 265.69,75.89,3.64 266.14,73.98,3.39 266.52,72.07,3.13 266.85,70.14,2.87 267.12,68.21,2.62 267.35,66.26,2.36 267.51,64.31,2.11 267.63,62.36,1.87 267.69,60.42,1.63 267.69,58.46,1.41 267.64,56.51,1.19 267.52,54.56,0.99 267.36,52.61,0.80 267.13,50.67,0.62 266.84,48.74,0.47 266.50,46.81,0.33 266.10,44.91,0.22 265.64,43.01,0.12 265.12,41.14,0.06 264.54,39.28,0.01 263.90,37.44 263.20,35.61 262.46,33.82 261.64,32.05 260.77,30.31 259.84,28.59 258.86,26.91 257.82,25.27 256.73,23.66 255.59,22.09 254.38,20.56 253.13,19.07 251.82,17.63 250.47,16.23 249.07,14.88 247.63,13.59 246.13,12.35 244.60,11.17 243.01,10.04 241.39,8.96 239.73,7.95 238.05,7.01 236.32,6.13 234.56,5.31 232.77,4.57 230.95,3.89 229.11,3.28 227.25,2.75 225.37,2.28 223.47,1.89 221.53,1.58" type="driving">
            <param key="origId" value="0_-1"/>
        </lane>
    </edge>
    <edge id="0" from="0.end" to="0.begin" priority="1" type="driving" shape="221.79,0.00 223.76,0.32 225.72,0.72 227.66,1.20 229.58,1.75 231.48,2.38 233.36,3.08 235.20,3.85 237.02,4.69 238.80,5.60 240.54,6.57 242.25,7.61 243.92,8.72 245.55,9.88 247.13,11.10 248.67,12.38 250.16,13.71 251.60,15.10 252.99,16.54 254.33,18.02 255.62,19.55 256.86,21.12 258.04,22.74 259.16,24.39 260.23,26.08 261.24,27.81 262.19,29.57 263.08,31.36 263.92,33.18 264.69,35.02 265.40,36.89 266.06,38.78,0.01 266.65,40.69,0.06 267.19,42.61,0.12 267.66,44.56,0.22 268.07,46.51,0.33 268.42,48.48,0.47 268.72,50.46,0.62 268.95,52.45,0.80 269.12,54.44,0.99 269.24,56.44,1.19 269.29,58.44,1.41 269.29,60.44,1.63 269.23,62.43,1.87 269.11,64.43,2.11 268.94,66.42,2.36 268.71,68.41,2.62 268.43,70.39,2.87 268.09,72.36,3.13 267.70,74.32,3.39 267.25,76.27,3.64 266.76,78.21,3.89 266.21,80.13,4.13 265.61,82.04,4.37 264.97,83.93,4.59 264.27,85.81,4.81 263.53,87.67,5.01 262.74,89.51,5.20 261.91,91.32,5.38 261.03,93.12,5.53 260.11,94.90,5.67 259.14,96.65,5.78 258.14,98.38,5.88 257.09,100.08,5.94 256.01,101.76,5.99 254.89,103.42,6.00 253.73,105.05,5.99 252.53,106.65,5.94 251.30,108.23,5.88 250.03,109.77,5.78 248.74,111.29,5.67 247.40,112.79,5.53 246.04,114.25,5.38 244.65,115.69,5.20 243.23,117.09,5.01 241.78,118.47,4.81 240.30,119.82,4.59 238.80,121.14,4.37 237.27,122.43,4.13 235.72,123.69,3.89 234.14,124.92,3.64 232.54,126.12,3.38 230.92,127.29,3.13 229.28,128.43,2.87 227.62,129.55,2.62 225.93,130.63,2.36 224.23,131.68,2.11 222.52,132.71,1.87 220.78,133.70,1.63 219.03,134.67,1.41 217.26,135.61,1.19 215.48,136.52,0.99 213.69,137.40,0.80 211.88,138.25,0.62 210.06,139.08,0.47 208.22,139.87,0.33 206.38,140.65,0.22 204.52,141.39,0.12 202.66,142.11,0.06 200.78,142.80,0.01 198.89,143.47 197.00,144.11 195.10,144.73 193.19,145.32 191.27,145.89 189.35,146.43 187.42,146.96 185.48,147.46 183.54,147.93 181.59,148.39 179.64,148.82 177.68,149.24 175.72,149.63 173.75,150.00 171.79,150.35 169.81,150.69 167.84,151.01 165.86,151.30 163.88,151.58 161.90,151.85 159.91,152.10 157.93,152.33 155.94,152.54 153.95,152.74 151.96,152.93 149.97,153.10 147.97,153.26 145.98,153.41 143.98,153.55 141.99,153.67 139.99,153.78 137.99,153.88 135.99,153.97 133.99,154.06 132.00,154.13 130.00,154.19 128.00,154.25 126.00,154.30 124.00,154.34 122.00,154.37 120.00,154.40 118.00,154.43 116.00,154.45 114.00,154.46 112.00,154.47 110.00,154.48 108.00,154.49 106.00,154.49 102.00,154.49 0.00,154.49">
        <lane id="0_0" index="0" disallow="pedestrian tram rail_urban rail rail_electric rail_fast ship container cable_car subway aircraft wheelchair scooter drone" speed="13.89" length="405.36" width="3.20" shape="222.05,-1.58 224.05,-1.25 226.07,-0.84 228.07,-0.35 230.05,0.22 232.01,0.87 233.95,1.59 235.84,2.39 237.72,3.25 239.55,4.19 241.35,5.19 243.11,6.26 244.83,7.40 246.50,8.59 248.13,9.85 249.71,11.17 251.25,12.54 252.73,13.97 254.16,15.45 255.53,16.97 256.86,18.54 258.13,20.15 259.35,21.82 260.50,23.51 261.60,25.25 262.64,27.03 263.61,28.83 264.52,30.67 265.38,32.54 266.18,34.43 266.90,36.34 267.58,38.28,0.01 268.18,40.24,0.06 268.74,42.21,0.12 269.22,44.21,0.22 269.64,46.21,0.33 270.00,48.22,0.47 270.31,50.25,0.62 270.54,52.29,0.80 270.72,54.32,0.99 270.84,56.37,1.19 270.89,58.42,1.41 270.89,60.46,1.63 270.83,62.50,1.87 270.71,64.55,2.11 270.53,66.58,2.36 270.30,68.61,2.62 270.01,70.64,2.87 269.66,72.65,3.13 269.26,74.66,3.39 268.81,76.65,3.64 268.30,78.63,3.89 267.74,80.59,4.13 267.13,82.54,4.37 266.48,84.47,4.59 265.76,86.38,4.81 265.01,88.28,5.01 264.20,90.16,5.20 263.36,92.00,5.38 262.46,93.84,5.53 261.52,95.66,5.67 260.53,97.44,5.78 259.51,99.20,5.88 258.44,100.93,5.94 257.35,102.64,5.99 256.21,104.33,6.00 255.02,105.99,5.99 253.80,107.62,5.94 252.55,109.23,5.88 251.26,110.80,5.78 249.95,112.34,5.67 248.58,113.87,5.53 247.20,115.35,5.38 245.79,116.82,5.20 244.34,118.24,5.01 242.87,119.64,4.81 241.37,121.01,4.59 239.84,122.35,4.37 238.29,123.66,4.13 236.72,124.94,3.89 235.11,126.19,3.64 233.49,127.41,3.38 231.85,128.60,3.13 230.18,129.75,2.87 228.50,130.89,2.62 226.78,131.98,2.36 225.06,133.05,2.11 223.33,134.09,1.87 221.56,135.10,1.63 219.79,136.08,1.41 218.00,137.03,1.19 216.20,137.95,0.99 214.38,138.84,0.80 212.55,139.70,0.62 210.71,140.54,0.47 208.85,141.34,0.33 206.99,142.13,0.22 205.10,142.88,0.12 203.22,143.61,0.06 201.32,144.31,0.01 199.41,144.98 197.50,145.63 195.58,146.25 193.65,146.85 191.71,147.43 189.78,147.97 187.83,148.51 185.87,149.01 183.91,149.49 181.95,149.95 179.98,150.38 178.00,150.81 176.02,151.20 174.04,151.57 172.07,151.93 170.07,152.27 168.08,152.59 166.09,152.88 164.10,153.16 162.11,153.44 160.10,153.69 158.11,153.92 156.10,154.13 154.11,154.33 152.10,154.52 150.10,154.69 148.09,154.86 146.10,155.01 144.08,155.15 142.08,155.27 140.07,155.38 138.07,155.48 136.06,155.57 134.05,155.66 132.05,155.73 130.05,155.79 128.04,155.85 126.04,155.90 124.03,155.94 122.02,155.97 120.02,156.00 118.02,156.03 116.01,156.05 114.01,156.06 112.01,156.07 110.01,156.08 108.00,156.09 106.00,156.09 102.00,156.09 0.00,156.09" type="driving">
            <param key="origId" value="0_1"/>
        </lane>
    </edge>

    <junction id="0.begin" type="priority" x="0.00" y="154.49" incLanes="0_0" intLanes=":0.begin_0_0" shape="0.00,154.49 0.00,157.69 0.00,154.49">
        <request index="0" response="0" foes="0" cont="0"/>
    </junction>
    <junction id="0.end" type="priority" x="221.79" y="0.00" incLanes="-0_0" intLanes=":0.end_0_0" shape="221.79,-0.00 222.30,-3.16 221.28,3.16">
        <request index="0" response="0" foes="0" cont="0"/>
    </junction>

    <connection from="-0" to="0" fromLane="0" toLane="0" via=":0.end_0_0" dir="t" state="M"/>
    <connection from="0" to="-0" fromLane="0" toLane="0" via=":0.begin_0_0" dir="t" state="M"/>

    <connection from=":0.begin_0" to="-0" fromLane="0" toLane="0" dir="t" state="M"/>
    <connection from=":0.end_0" to="0" fromLane="0" toLane="0" dir="t" state="M"/>

</net>
