<?xml version="1.0" encoding="UTF-8"?>

<!-- generated on 2026-06-29T14:38:53.262910+01:00 by Eclipse SUMO netconvert 1.27.0
<netconvertConfiguration xmlns:xsi="http://www.w3.org/2001/XMLSchema-instance" xsi:noNamespaceSchemaLocation="http://sumo.dlr.de/xsd/netconvertConfiguration.xsd">

    <input>
        <opendrive-files value="curve_r100.xodr"/>
    </input>

    <output>
        <output-file value="curve_r100.net.xml"/>
        <output.original-names value="true"/>
    </output>

    <junctions>
        <no-turnarounds.except-deadend value="true"/>
    </junctions>

</netconvertConfiguration>
-->

<net version="1.20" junctionCornerDetail="5" rectangularLaneCut="true" limitTurnSpeed="5.50" xmlns:xsi="http://www.w3.org/2001/XMLSchema-instance" xsi:noNamespaceSchemaLocation="http://sumo.dlr.de/xsd/net_file.xsd">

    <location netOffset="0.00,0.00" convBoundary="0.00,0.00,600.00,200.00" origBoundary="0.000000,0.000000,0.000000,0.000000" projParameter="+proj=utm +lat_0=37.35429341239328 +lon_0=-122.0859797650754 +k_0=1 +x_0=0 +y_0=0 +datum=WGS84 +geoidgrids=egm96_15.gtx +vunits=m +zone=32 +ellps=GRS80 +units=m +no_defs        "/>

    <type id="driving" priority="1" speed="13.89" disallow="pedestrian tram rail_urban rail rail_electric rail_fast ship container cable_car subway aircraft wheelchair scooter drone" width="3.65"/>

    <edge id=":0.begin_0" function="internal">
        <lane id=":0.begin_0_0" index="0" disallow="pedestrian tram rail_urban rail rail_electric rail_fast ship container cable_car subway aircraft wheelchair scooter drone" speed="3.58" length="4.48" width="3.07" shape="0.00,1.53 -1.15,0.77 -1.53,0.00 -1.15,-0.77 0.00,-1.53"/>
    </edge>
    <edge id=":0.end_0" function="internal">
        <lane id=":0.end_0_0" index="0" disallow="pedestrian tram rail_urban rail rail_electric rail_fast ship container cable_car subway aircraft wheelchair scooter drone" speed="3.58" length="4.48" width="3.07" shape="601.53,200.00 600.77,201.15 600.00,201.53 599.23,201.15 598.47,200.00"/>
    </edge>

    <edge id="-0" from="0.begin" to="0.end" priority="1" type="driving" shape="0.00,0.00 500.00,0.00 502.00,0.02 504.00,0.08 506.00,0.18 507.99,0.32 509.98,0.50 511.97,0.72 513.95,0.98 515.93,1.28 517.90,1.62 519.87,1.99 521.82,2.41 523.77,2.87 525.71,3.36 527.64,3.89 529.55,4.47 531.46,5.08 533.35,5.72 535.23,6.41 537.09,7.13 538.94,7.89 540.78,8.69 542.59,9.52 544.39,10.39 546.18,11.30 547.94,12.24 549.69,13.22 551.41,14.23 553.12,15.27 554.80,16.35 556.46,17.47 558.10,18.61 559.72,19.79 561.31,21.00 562.88,22.24 564.42,23.52 565.94,24.82 567.43,26.15 568.89,27.52 570.33,28.91 571.74,30.33 573.11,31.78 574.46,33.25 575.78,34.76 577.07,36.28 578.33,37.84 579.56,39.42 580.76,41.02 581.92,42.65 583.05,44.30 584.15,45.97 585.21,47.66 586.24,49.38 587.24,51.11 588.20,52.87 589.12,54.64 590.01,56.43 590.86,58.24 591.68,60.07 592.46,61.91 593.20,63.76 593.91,65.64 594.58,67.52 595.21,69.42 595.80,71.33 596.36,73.25 596.87,75.18 597.35,77.12 597.79,79.08 598.19,81.04 598.54,83.00 598.87,84.98 599.15,86.96 599.39,88.94 599.59,90.93 599.75,92.93 599.87,94.92 599.95,96.92 599.99,98.92 600.00,100.00 600.00,200.00">
        <lane id="-0_0" index="0" disallow="pedestrian tram rail_urban rail rail_electric rail_fast ship container cable_car subway aircraft wheelchair scooter drone" speed="13.89" length="759.49" width="3.07" shape="0.00,-1.53 500.00,-1.53 502.03,-1.51 504.06,-1.45 506.09,-1.35 508.11,-1.21 510.13,-1.03 512.15,-0.80 514.16,-0.54 516.18,-0.24 518.17,0.11 520.17,0.49 522.16,0.91 524.13,1.38 526.10,1.88 528.07,2.42 530.01,3.00 531.94,3.62 533.86,4.27 535.77,4.97 537.66,5.70 539.54,6.48 541.41,7.29 543.24,8.13 545.07,9.01 546.89,9.94 548.68,10.89 550.45,11.89 552.20,12.91 553.93,13.97 555.64,15.07 557.33,16.20 558.99,17.36 560.64,18.56 562.25,19.79 563.85,21.05 565.41,22.35 566.95,23.66 568.47,25.02 569.95,26.41 571.41,27.82 572.84,29.26 574.23,30.73 575.60,32.23 576.94,33.76 578.25,35.30 579.53,36.89 580.78,38.49 582.00,40.11 583.18,41.77 584.32,43.44 585.44,45.14 586.52,46.86 587.56,48.60 588.58,50.36 589.55,52.15 590.49,53.94 591.39,55.76 592.26,57.60 593.09,59.46 593.88,61.33 594.63,63.20 595.35,65.11 596.03,67.02 596.67,68.95 597.27,70.89 597.84,72.84 598.36,74.80 598.84,76.77 599.29,78.76 599.70,80.75 600.05,82.74 600.39,84.75 600.67,86.76 600.92,88.77 601.12,90.79 601.28,92.82 601.40,94.84 601.48,96.87 601.52,98.90 601.53,99.99 601.53,200.00" type="driving">
            <param key="origId" value="0_-1"/>
        </lane>
    </edge>
    <edge id="0" from="0.end" to="0.begin" priority="1" type="driving" shape="600.00,200.00 600.00,100.00 599.99,98.92 599.95,96.92 599.87,94.92 599.75,92.93 599.59,90.93 599.39,88.94 599.15,86.96 598.87,84.98 598.54,83.00 598.19,81.04 597.79,79.08 597.35,77.12 596.87,75.18 596.36,73.25 595.80,71.33 595.21,69.42 594.58,67.52 593.91,65.64 593.20,63.76 592.46,61.91 591.68,60.07 590.86,58.24 590.01,56.43 589.12,54.64 588.20,52.87 587.24,51.11 586.24,49.38 585.21,47.66 584.15,45.97 583.05,44.30 581.92,42.65 580.76,41.02 579.56,39.42 578.33,37.84 577.07,36.28 575.78,34.76 574.46,33.25 573.11,31.78 571.74,30.33 570.33,28.91 568.89,27.52 567.43,26.15 565.94,24.82 564.42,23.52 562.88,22.24 561.31,21.00 559.72,19.79 558.10,18.61 556.46,17.47 554.80,16.35 553.12,15.27 551.41,14.23 549.69,13.22 547.94,12.24 546.18,11.30 544.39,10.39 542.59,9.52 540.78,8.69 538.94,7.89 537.09,7.13 535.23,6.41 533.35,5.72 531.46,5.08 529.55,4.47 527.64,3.89 525.71,3.36 523.77,2.87 521.82,2.41 519.87,1.99 517.90,1.62 515.93,1.28 513.95,0.98 511.97,0.72 509.98,0.50 507.99,0.32 506.00,0.18 504.00,0.08 502.00,0.02 500.00,0.00 0.00,0.00">
        <lane id="0_0" index="0" disallow="pedestrian tram rail_urban rail rail_electric rail_fast ship container cable_car subway aircraft wheelchair scooter drone" speed="13.89" length="754.67" width="3.07" shape="598.47,200.00 598.47,100.00 598.46,98.94 598.42,96.97 598.34,95.00 598.22,93.04 598.06,91.07 597.86,89.11 597.63,87.16 597.35,85.21 597.03,83.26 596.68,81.33 596.29,79.40 595.86,77.47 595.38,75.56 594.88,73.66 594.33,71.77 593.75,69.89 593.13,68.02 592.47,66.17 591.77,64.32 591.04,62.49 590.27,60.68 589.46,58.88 588.63,57.10 587.75,55.34 586.85,53.59 585.90,51.86 584.92,50.16 583.90,48.46 582.86,46.80 581.78,45.16 580.66,43.53 579.52,41.93 578.34,40.35 577.13,38.79 575.89,37.26 574.62,35.76 573.32,34.27 571.99,32.83 570.64,31.40 569.25,30.00 567.83,28.63 566.39,27.28 564.93,25.98 563.43,24.69 561.91,23.43 560.37,22.21 558.80,21.02 557.21,19.86 555.59,18.74 553.96,17.63 552.31,16.57 550.62,15.55 548.93,14.55 547.20,13.59 545.47,12.66 543.71,11.77 541.94,10.91 540.15,10.09 538.34,9.30 536.52,8.56 534.69,7.85 532.84,7.17 530.98,6.54 529.09,5.94 527.21,5.36 525.32,4.84 523.41,4.36 521.48,3.91 519.57,3.49 517.63,3.13 515.68,2.80 513.74,2.50 511.79,2.24 509.83,2.03 507.87,1.85 505.91,1.71 503.94,1.61 501.97,1.55 499.99,1.53 0.00,1.53" type="driving">
            <param key="origId" value="0_1"/>
        </lane>
    </edge>

    <junction id="0.begin" type="priority" x="0.00" y="0.00" incLanes="0_0" intLanes=":0.begin_0_0" shape="-0.00,-0.00 0.00,3.07 0.00,0.00">
        <request index="0" response="0" foes="0" cont="0"/>
    </junction>
    <junction id="0.end" type="priority" x="600.00" y="200.00" incLanes="-0_0" intLanes=":0.end_0_0" shape="600.00,200.00 603.07,200.00 600.00,200.00">
        <request index="0" response="0" foes="0" cont="0"/>
    </junction>

    <connection from="-0" to="0" fromLane="0" toLane="0" via=":0.end_0_0" dir="t" state="M"/>
    <connection from="0" to="-0" fromLane="0" toLane="0" via=":0.begin_0_0" dir="t" state="M"/>

    <connection from=":0.begin_0" to="-0" fromLane="0" toLane="0" dir="t" state="M"/>
    <connection from=":0.end_0" to="0" fromLane="0" toLane="0" dir="t" state="M"/>

</net>
