<?xml version="1.0" encoding="UTF-8"?>

<!-- generated on 2026-06-26T14:58:18.841908+01:00 by Eclipse SUMO netconvert 1.27.0
<netconvertConfiguration xmlns:xsi="http://www.w3.org/2001/XMLSchema-instance" xsi:noNamespaceSchemaLocation="http://sumo.dlr.de/xsd/netconvertConfiguration.xsd">

    <input>
        <opendrive-files value="curves_elevation.xodr"/>
    </input>

    <output>
        <output-file value="../netconvert_nets/curves_elevation.net.xml"/>
        <output.original-names value="true"/>
    </output>

    <junctions>
        <no-turnarounds.except-deadend value="true"/>
    </junctions>

</netconvertConfiguration>
-->

<net version="1.20" junctionCornerDetail="5" rectangularLaneCut="true" limitTurnSpeed="5.50" xmlns:xsi="http://www.w3.org/2001/XMLSchema-instance" xsi:noNamespaceSchemaLocation="http://sumo.dlr.de/xsd/net_file.xsd">

    <location netOffset="0.00,63.77" convBoundary="0.00,0.00,553.04,415.50" origBoundary="0.00,-63.77,553.04,351.73" projParameter="!"/>

    <type id="driving" priority="1" speed="13.89" disallow="pedestrian tram rail_urban rail rail_electric rail_fast ship container cable_car subway aircraft wheelchair scooter drone" width="3.65"/>

    <edge id=":1.begin_0" function="internal">
        <lane id=":1.begin_0_0" index="0" disallow="pedestrian tram rail_urban rail rail_electric rail_fast ship container cable_car subway aircraft wheelchair scooter drone" speed="3.58" length="4.48" width="3.07" shape="0.00,65.31 -1.15,64.54 -1.54,63.77 -1.15,63.00 0.00,62.24"/>
    </edge>
    <edge id=":1.end_0" function="internal">
        <lane id=":1.end_0_0" index="0" disallow="pedestrian tram rail_urban rail rail_electric rail_fast ship container cable_car subway aircraft wheelchair scooter drone" speed="3.58" length="4.48" width="3.07" shape="444.49,1.42 443.72,0.27 443.66,-0.59 444.31,-1.15 445.67,-1.42"/>
    </edge>

    <edge id="-1" from="1.begin" to="1.end" priority="1" type="driving" shape="0.00,63.77 2.00,63.77 4.00,63.77,-0.01 6.00,63.77,-0.01 8.00,63.77,-0.02 10.00,63.77,-0.03 12.00,63.77,-0.05 14.00,63.77,-0.06 16.00,63.77,-0.08 18.00,63.77,-0.10 20.00,63.77,-0.12 22.00,63.77,-0.15 24.00,63.77,-0.18 26.00,63.77,-0.21 28.00,63.77,-0.24 30.00,63.77,-0.27 32.00,63.77,-0.31 34.00,63.77,-0.35 36.00,63.77,-0.39 40.00,63.77,-0.47 44.00,63.77,-0.57 48.00,63.77,-0.67 52.00,63.77,-0.78 54.00,63.77,-0.83 56.00,63.78,-0.89 58.00,63.78,-0.95 60.00,63.80,-1.01 62.00,63.81,-1.08 64.00,63.84,-1.14 66.00,63.87,-1.21 68.00,63.91,-1.28 70.00,63.96,-1.34 72.00,64.02,-1.42 74.00,64.10,-1.49 75.99,64.18,-1.56 77.99,64.28,-1.63 79.99,64.40,-1.71 81.98,64.54,-1.78 83.98,64.69,-1.86 85.97,64.86,-1.94 87.96,65.05,-2.01 89.95,65.26,-2.09 91.94,65.50,-2.17 93.92,65.76,-2.25 95.90,66.04,-2.32 97.88,66.35,-2.40 99.85,66.68,-2.47 101.81,67.04,-2.55 103.78,67.43,-2.62 105.73,67.85,-2.69 107.68,68.30,-2.76 109.63,68.77,-2.83 111.56,69.27,-2.90 113.49,69.79,-2.97 115.41,70.34,-3.03 117.33,70.92,-3.10 119.23,71.53,-3.15 121.13,72.16,-3.21 123.02,72.82,-3.27 124.90,73.51,-3.32 126.77,74.22,-3.37 128.63,74.96,-3.42 130.47,75.72,-3.46 132.31,76.51,-3.50 134.14,77.33,-3.54 135.95,78.17,-3.57 137.75,79.04,-3.60 139.55,79.93,-3.62 141.32,80.84,-3.64 143.09,81.78,-3.66 144.84,82.75,-3.67 146.58,83.74,-3.68 148.30,84.75,-3.69 150.01,85.79,-3.69 151.70,86.86,-3.68 153.38,87.94,-3.68 155.05,89.05,-3.67 156.70,90.18,-3.66 158.33,91.34,-3.64 159.94,92.52,-3.62 161.54,93.72,-3.60 163.13,94.94,-3.58 164.69,96.19,-3.55 166.24,97.45,-3.52 167.77,98.74,-3.49 169.28,100.05,-3.46 170.77,101.38,-3.42 172.25,102.73,-3.39 173.70,104.11,-3.35 175.14,105.50,-3.31 176.55,106.91,-3.27 177.95,108.34,-3.23 179.33,109.79,-3.19 180.68,111.26,-3.14 182.02,112.75,-3.10 183.33,114.26,-3.05 184.62,115.79,-3.01 185.89,117.33,-2.96 187.14,118.89,-2.92 188.37,120.47,-2.87 189.58,122.07,-2.83 190.76,123.68,-2.78 191.92,125.31,-2.74 193.06,126.95,-2.69 194.17,128.62,-2.65 195.26,130.29,-2.61 196.33,131.98,-2.57 197.37,133.69,-2.52 198.39,135.41,-2.48 199.39,137.15,-2.44 200.36,138.89,-2.40 201.30,140.66,-2.36 202.22,142.43,-2.32 203.12,144.22,-2.28 203.99,146.02,-2.24 204.84,147.83,-2.20 205.66,149.66,-2.16 206.45,151.49,-2.11 207.22,153.34,-2.07 207.97,155.19,-2.02 208.68,157.06,-1.97 209.38,158.94,-1.92 210.04,160.82,-1.87 210.68,162.72,-1.82 211.29,164.62,-1.76 211.87,166.54,-1.71 212.43,168.46,-1.65 212.96,170.38,-1.58 213.47,172.32,-1.52 213.95,174.26,-1.45 214.39,176.21,-1.38 214.82,178.17,-1.31 215.21,180.13,-1.23 215.58,182.09,-1.15 215.92,184.06,-1.06 216.23,186.04,-0.97 216.52,188.02,-0.88 216.77,190.00,-0.78 217.00,191.99,-0.68 217.20,193.98,-0.58 217.38,195.97,-0.47 217.52,197.97,-0.35 217.64,199.96,-0.23 217.73,201.96,-0.11 217.79,203.96,0.02 217.82,205.96,0.15 217.83,207.96,0.29 217.81,209.96,0.42 217.76,211.96,0.56 217.68,213.96,0.71 217.57,215.95,0.85 217.44,217.95,1.00 217.28,219.94,1.15 217.09,221.93,1.29 216.87,223.92,1.44 216.62,225.91,1.59 216.35,227.89,1.74 216.05,229.86,1.89 215.72,231.84,2.04 215.65,232.23,2.07 215.29,234.20,2.21 214.90,236.16,2.36 214.49,238.12,2.50 214.05,240.07,2.64 213.60,242.02,2.78 213.13,243.96,2.92 212.64,245.90,3.05 212.13,247.83,3.18 211.61,249.76,3.31 211.08,251.69,3.43 210.53,253.62,3.54 209.98,255.54,3.65 209.42,257.46,3.76 208.86,259.38,3.86 208.29,261.30,3.96 207.71,263.21,4.04 207.45,264.11,4.08 206.87,266.03,4.16 206.30,267.95,4.23 205.74,269.86,4.30 205.17,271.78,4.36 204.62,273.71,4.41 204.07,275.63,4.45 203.53,277.56,4.49 203.00,279.48,4.53 202.49,281.42,4.56 201.99,283.35,4.58 201.51,285.30,4.60 201.05,287.24,4.62 200.60,289.19,4.63 200.18,291.15,4.64 199.78,293.11,4.65 199.41,295.07,4.65 199.06,297.04,4.66 198.74,299.01,4.66 198.45,300.99,4.66 198.20,302.98,4.66 197.97,304.96,4.66 197.79,306.96,4.65 197.64,308.95,4.65 197.57,310.01,4.65 197.48,312.00,4.65 197.43,314.00,4.65 197.42,316.00,4.65 197.45,318.00,4.66 197.52,320.00,4.67 197.63,322.00,4.67 197.78,323.99,4.69 197.97,325.98,4.70 198.20,327.97,4.72 198.47,329.95,4.75 198.78,331.93,4.77 199.13,333.90,4.81 199.51,335.86,4.84 199.94,337.81,4.89 200.41,339.76,4.94 200.91,341.69,4.99 201.45,343.62,5.06 202.04,345.53,5.12 202.66,347.43,5.20 203.31,349.32,5.27 204.01,351.20,5.36 204.74,353.06,5.45 205.51,354.91,5.54 206.32,356.74,5.64 207.16,358.55,5.74 208.04,360.35,5.85 208.95,362.12,5.96 209.90,363.88,6.08 210.89,365.63,6.20 211.91,367.35,6.33 212.96,369.05,6.45 214.05,370.72,6.59 215.17,372.38,6.72 216.32,374.01,6.86 217.51,375.62,7.01 218.73,377.21,7.15 219.98,378.77,7.30 221.26,380.31,7.46 222.57,381.82,7.61 223.91,383.30,7.77 225.28,384.76,7.93 226.68,386.19,8.10 228.11,387.59,8.26 229.57,388.96,8.43 231.05,390.30,8.60 232.56,391.61,8.78 234.09,392.90,8.95 235.65,394.15,9.13 237.24,395.37,9.30 238.85,396.55,9.48 240.48,397.71,9.66 242.13,398.83,9.84 243.81,399.92,10.03 245.51,400.98,10.21 247.23,402.00,10.39 248.97,402.98,10.57 250.73,403.93,10.75 252.51,404.85,10.94 254.30,405.73,11.12 256.12,406.58,11.29 257.95,407.38,11.47 259.79,408.15,11.65 261.65,408.89,11.82 263.53,409.58,11.99 265.41,410.24,12.16 267.32,410.86,12.32 269.23,411.45,12.49 271.15,411.99,12.64 273.09,412.50,12.80 275.03,412.97,12.95 276.99,413.39,13.09 278.95,413.78,13.23 280.92,414.13,13.37 282.89,414.44,13.50 284.87,414.71,13.62 286.86,414.94,13.74 288.85,415.14,13.85 290.85,415.29,13.96 292.84,415.40,14.06 294.84,415.47,14.15 296.84,415.50,14.23 298.84,415.49,14.31 300.84,415.45,14.38 302.84,415.36,14.44 304.83,415.23,14.49 306.83,415.06,14.53 308.82,414.85,14.56 310.80,414.60,14.59 312.78,414.32,14.60 314.75,413.99,14.61 316.72,413.62,14.61 318.68,413.22,14.60 320.63,412.77,14.58 322.57,412.29,14.56 324.50,411.77,14.53 326.42,411.21,14.49 328.33,410.61,14.45 330.22,409.97,14.40 332.11,409.30,14.35 333.97,408.58,14.29 335.83,407.83,14.23 337.67,407.05,14.16 339.49,406.22,14.09 341.30,405.37,14.01 343.08,404.47,13.94 344.85,403.54,13.85 346.61,402.57,13.77 348.34,401.57,13.68 350.05,400.54,13.60 351.74,399.47,13.51 353.41,398.36,13.42 355.05,397.23,13.32 356.67,396.06,13.23 358.27,394.86,13.14 359.85,393.62,13.05 361.40,392.36,12.95 362.92,391.07,12.86 364.42,389.74,12.77 365.89,388.39,12.68 367.34,387.00,12.60 368.75,385.59,12.51 370.14,384.15,12.43 371.50,382.68,12.35 372.83,381.19,12.27 374.12,379.66,12.20 375.39,378.12,12.13 376.63,376.55,12.06 377.84,374.95,12.00 379.02,373.34,11.93 380.17,371.70,11.87 381.29,370.05,11.82 382.38,368.37,11.76 383.45,366.68,11.71 384.49,364.97,11.66 385.51,363.25,11.61 386.51,361.52,11.56 387.48,359.77,11.52 388.42,358.01,11.47 389.35,356.23,11.43 390.25,354.45,11.39 391.14,352.66,11.36 392.01,350.85,11.32 392.86,349.04,11.29 393.69,347.23,11.25 394.50,345.40,11.22 395.31,343.57,11.19 396.10,341.73,11.16 396.87,339.89,11.13 397.64,338.04,11.11 398.39,336.19,11.08 399.13,334.33,11.05 399.87,332.47,11.03 400.60,330.61,11.00 401.33,328.74,10.98 402.04,326.88,10.96 402.76,325.01,10.94 403.47,323.14,10.91 405.84,316.91,10.84 406.56,315.04,10.82 407.27,313.18,10.80 408.00,311.31,10.78 408.72,309.45,10.77 409.46,307.59,10.75 410.20,305.73,10.74 410.95,303.88,10.72 411.71,302.03,10.71 412.48,300.18,10.70 413.27,298.34,10.70 414.07,296.51,10.70 414.88,294.68,10.70 415.71,292.86,10.70 416.55,291.05,10.71 417.12,289.84,10.71 417.99,288.04,10.72 418.88,286.25,10.74 419.79,284.47,10.76 420.72,282.70,10.79 421.66,280.93,10.82 422.63,279.18,10.85 423.60,277.44,10.89 424.60,275.70,10.94 425.61,273.98,10.99 426.65,272.26,11.04 427.69,270.56,11.10 428.76,268.87,11.17 429.84,267.19,11.25 430.94,265.51,11.33 432.05,263.85,11.42 433.19,262.21,11.51 434.33,260.57,11.61 435.50,258.94,11.72 436.68,257.33,11.84 437.88,255.73,11.96 439.09,254.14,12.10 440.32,252.56,12.24 441.56,250.99,12.38 442.82,249.44,12.53 444.10,247.90,12.69 445.39,246.37,12.86 446.70,244.86,13.02 448.02,243.35,13.20 449.35,241.87,13.37 450.70,240.39,13.55 452.07,238.93,13.73 453.45,237.48,13.91 454.84,236.05,14.09 456.25,234.63,14.28 457.68,233.22,14.46 459.11,231.83,14.64 460.56,230.46,14.83 462.03,229.09,15.01 463.51,227.75,15.18 465.00,226.41,15.36 466.50,225.10,15.53 468.02,223.79,15.70 469.55,222.51,15.87 471.09,221.24,16.02 472.65,219.98,16.18 474.22,218.74,16.33 475.80,217.51,16.47 477.39,216.30,16.60 479.00,215.11,16.73 480.62,213.93,16.85 482.24,212.77,16.96 483.88,211.63,17.06 485.53,210.49,17.15 487.18,209.37,17.23 488.84,208.25,17.30 490.51,207.15,17.36 492.18,206.04,17.40 493.85,204.94,17.44 494.40,204.57,17.45 496.07,203.47,17.47 497.74,202.37,17.47 499.41,201.26,17.47 501.07,200.15,17.46 502.73,199.03,17.44 504.38,197.90,17.41 506.02,196.76,17.36 507.65,195.60,17.31 509.27,194.43,17.25 510.88,193.24,17.19 512.47,192.03,17.11 514.05,190.80,17.02 515.61,189.55,16.93 517.15,188.28,16.83 518.67,186.97,16.72 520.16,185.64,16.61 521.15,184.74,16.53 522.60,183.37,16.40 524.02,181.96,16.27 525.41,180.53,16.13 526.78,179.07,15.99 528.12,177.58,15.84 529.42,176.06,15.68 530.70,174.52,15.52 531.94,172.96,15.36 533.15,171.37,15.19 534.33,169.75,15.02 535.48,168.12,14.84 536.60,166.46,14.66 537.68,164.77,14.48 538.73,163.07,14.29 539.74,161.35,14.10 540.72,159.60,13.91 541.67,157.84,13.72 542.57,156.06,13.52 543.45,154.26,13.33 544.28,152.44,13.13 545.08,150.61,12.93 545.85,148.76,12.72 546.57,146.90,12.52 547.26,145.02,12.32 547.91,143.13,12.11 548.53,141.22,11.90 549.10,139.31,11.70 549.64,137.38,11.49 550.14,135.44,11.28 550.59,133.50,11.07 551.01,131.54,10.86 551.40,129.58,10.65 551.74,127.61,10.44 552.04,125.63,10.23 552.30,123.65,10.01 552.52,121.66,9.80 552.71,119.67,9.59 552.85,117.68,9.38 552.95,115.68,9.17 553.02,113.68,8.96 553.04,111.68,8.76 553.02,109.68,8.55 552.97,107.68,8.34 552.87,105.68,8.13 552.73,103.69,7.93 552.56,101.69,7.73 552.34,99.71,7.52 552.08,97.72,7.32 551.79,95.75,7.12 551.45,93.77,6.92 551.08,91.81,6.73 550.66,89.85,6.53 550.21,87.90,6.34 549.72,85.97,6.15 549.19,84.04,5.96 548.62,82.12,5.78 548.01,80.21,5.60 547.37,78.32,5.41 546.69,76.44,5.24 545.96,74.58,5.06 545.21,72.72,4.89 544.41,70.89,4.71 543.58,69.07,4.55 542.72,67.27,4.38 541.81,65.48,4.22 540.87,63.72,4.05 539.90,61.97,3.90 538.89,60.24,3.74 537.85,58.54,3.59 536.77,56.85,3.44 535.66,55.19,3.29 534.52,53.55,3.15 533.34,51.93,3.01 532.14,50.33,2.87 530.90,48.76,2.73 529.63,47.22,2.60 528.33,45.70,2.47 526.99,44.21,2.35 525.63,42.74,2.23 524.24,41.31,2.11 522.82,39.90,1.99 521.38,38.51,1.88 519.90,37.16,1.77 518.40,35.84,1.67 516.88,34.55,1.57 515.33,33.29,1.47 513.75,32.06,1.38 512.15,30.86,1.29 510.52,29.69,1.20 508.87,28.56,1.12 507.20,27.46,1.04 505.51,26.39,0.96 503.80,25.36,0.89 502.07,24.36,0.83 500.31,23.40,0.76 498.54,22.47,0.70 496.75,21.58,0.64 494.94,20.72,0.59 493.12,19.90,0.53 491.28,19.12,0.49 489.43,18.36,0.44 487.58,17.59,0.40 485.74,16.83,0.36 483.89,16.06,0.32 482.04,15.30,0.28 480.19,14.53,0.25 478.34,13.77,0.22 476.50,13.00,0.19 474.65,12.24,0.17 472.80,11.47,0.14 470.95,10.71,0.12 467.26,9.18,0.09 463.56,7.65,0.06 459.86,6.12,0.03 456.17,4.59,0.02 452.47,3.06,0.01 448.78,1.53 445.08,0.00">
        <lane id="-1_0" index="0" disallow="pedestrian tram rail_urban rail rail_electric rail_fast ship container cable_car subway aircraft wheelchair scooter drone" speed="13.89" length="1151.83" width="3.07" shape="0.00,62.24 2.00,62.24 4.00,62.24,-0.01 6.00,62.24,-0.01 8.00,62.24,-0.02 10.00,62.24,-0.03 12.00,62.24,-0.05 14.00,62.24,-0.06 16.00,62.24,-0.08 18.00,62.24,-0.10 20.00,62.24,-0.12 22.00,62.24,-0.15 24.00,62.24,-0.18 26.00,62.24,-0.21 28.00,62.24,-0.24 30.00,62.24,-0.27 32.00,62.24,-0.31 34.00,62.24,-0.35 36.00,62.24,-0.39 40.00,62.24,-0.47 44.00,62.24,-0.57 48.00,62.24,-0.67 52.00,62.24,-0.78 54.00,62.24,-0.83 56.00,62.25,-0.89 58.01,62.25,-0.95 60.01,62.27,-1.01 62.02,62.28,-1.08 64.02,62.31,-1.14 66.03,62.34,-1.21 68.03,62.38,-1.28 70.04,62.43,-1.34 72.05,62.49,-1.42 74.06,62.57,-1.49 76.06,62.65,-1.56 78.07,62.75,-1.63 80.09,62.87,-1.71 82.09,63.01,-1.78 84.10,63.16,-1.86 86.11,63.33,-1.94 88.11,63.52,-2.01 90.12,63.73,-2.09 92.13,63.98,-2.17 94.13,64.24,-2.25 96.13,64.52,-2.32 98.13,64.83,-2.40 100.12,65.17,-2.47 102.10,65.53,-2.55 104.09,65.93,-2.62 106.06,66.35,-2.69 108.03,66.81,-2.76 110.00,67.28,-2.83 111.95,67.79,-2.90 113.90,68.31,-2.97 115.84,68.87,-3.03 117.79,69.45,-3.10 119.71,70.07,-3.15 121.62,70.71,-3.21 123.54,71.37,-3.27 125.44,72.07,-3.32 127.33,72.79,-3.37 129.21,73.54,-3.42 131.07,74.31,-3.46 132.93,75.10,-3.50 134.78,75.93,-3.54 136.61,76.78,-3.57 138.42,77.66,-3.60 140.24,78.56,-3.62 142.03,79.48,-3.64 143.82,80.43,-3.66 145.59,81.41,-3.67 147.35,82.41,-3.68 149.09,83.43,-3.69 150.82,84.49,-3.69 152.53,85.57,-3.68 154.22,86.66,-3.68 155.91,87.78,-3.67 157.58,88.92,-3.66 159.23,90.10,-3.64 160.85,91.29,-3.62 162.47,92.50,-3.60 164.08,93.73,-3.58 165.65,95.00,-3.55 167.22,96.27,-3.52 168.77,97.57,-3.49 170.29,98.90,-3.46 171.80,100.24,-3.42 173.30,101.61,-3.39 174.76,103.00,-3.35 176.22,104.41,-3.31 177.64,105.83,-3.27 179.05,107.27,-3.23 180.45,108.74,-3.19 181.82,110.23,-3.14 183.17,111.73,-3.10 184.50,113.26,-3.05 185.80,114.81,-3.01 187.08,116.36,-2.96 188.34,117.94,-2.92 189.59,119.54,-2.87 190.81,121.15,-2.83 192.00,122.78,-2.78 193.18,124.43,-2.74 194.33,126.09,-2.69 195.45,127.78,-2.65 196.55,129.46,-2.61 197.63,131.17,-2.57 198.69,132.90,-2.52 199.72,134.64,-2.48 200.73,136.39,-2.44 201.71,138.16,-2.40 202.66,139.95,-2.36 203.59,141.73,-2.32 204.50,143.54,-2.28 205.38,145.36,-2.24 206.24,147.19,-2.20 207.07,149.04,-2.16 207.86,150.89,-2.11 208.64,152.76,-2.07 209.40,154.63,-2.02 210.12,156.52,-1.97 210.82,158.42,-1.92 211.49,160.32,-1.87 212.14,162.24,-1.82 212.76,164.16,-1.76 213.34,166.10,-1.71 213.91,168.04,-1.65 214.44,169.98,-1.58 214.96,171.94,-1.52 215.44,173.91,-1.45 215.89,175.88,-1.38 216.32,177.86,-1.31 216.72,179.84,-1.23 217.09,181.82,-1.15 217.43,183.81,-1.06 217.75,185.81,-0.97 218.04,187.81,-0.88 218.29,189.82,-0.78 218.53,191.83,-0.68 218.73,193.83,-0.58 218.91,195.85,-0.47 219.05,197.87,-0.35 219.17,199.88,-0.23 219.26,201.90,-0.11 219.32,203.93,0.02 219.35,205.94,0.15 219.36,207.96,0.29 219.34,209.99,0.42 219.29,212.01,0.56 219.21,214.03,0.71 219.10,216.04,0.85 218.97,218.06,1.00 218.81,220.07,1.15 218.62,222.09,1.29 218.39,224.10,1.44 218.14,226.11,1.59 217.87,228.11,1.74 217.57,230.10,1.89 217.23,232.10,2.04 217.16,232.51,2.07 216.80,234.49,2.21 216.40,236.47,2.36 215.99,238.45,2.50 215.55,240.41,2.64 215.09,242.37,2.78 214.62,244.33,2.92 214.13,246.28,3.05 213.61,248.23,3.18 213.09,250.16,3.31 212.56,252.10,3.43 212.01,254.04,3.54 211.45,255.97,3.65 210.89,257.89,3.76 210.33,259.81,3.86 209.76,261.74,3.96 209.18,263.65,4.04 208.92,264.55,4.08 208.34,266.47,4.16 207.77,268.38,4.23 207.21,270.29,4.30 206.64,272.21,4.36 206.10,274.13,4.41 205.55,276.05,4.45 205.01,277.97,4.49 204.48,279.88,4.53 203.98,281.81,4.56 203.48,283.73,4.58 203.00,285.66,4.60 202.54,287.59,4.62 202.10,289.52,4.63 201.68,291.46,4.64 201.29,293.41,4.65 200.92,295.35,4.65 200.57,297.30,4.66 200.26,299.24,4.66 199.97,301.20,4.66 199.72,303.16,4.66 199.50,305.12,4.66 199.32,307.09,4.65 199.17,309.06,4.65 199.10,310.09,4.65 199.01,312.05,4.65 198.96,314.02,4.65 198.95,315.99,4.65 198.98,317.96,4.66 199.05,319.93,4.67 199.16,321.90,4.67 199.31,323.86,4.69 199.50,325.82,4.70 199.72,327.78,4.72 199.99,329.73,4.75 200.29,331.68,4.77 200.64,333.62,4.81 201.01,335.55,4.84 201.44,337.46,4.89 201.90,339.39,4.94 202.39,341.29,4.99 202.92,343.19,5.06 203.50,345.07,5.12 204.12,346.94,5.20 204.76,348.80,5.27 205.44,350.65,5.36 206.16,352.48,5.45 206.92,354.30,5.54 207.72,356.11,5.64 208.55,357.89,5.74 209.41,359.66,5.85 210.31,361.40,5.96 211.24,363.14,6.08 212.22,364.86,6.20 213.22,366.56,6.33 214.26,368.23,6.45 215.33,369.87,6.59 216.43,371.51,6.72 217.56,373.11,6.86 218.74,374.70,7.01 219.94,376.26,7.15 221.17,377.80,7.30 222.43,379.32,7.46 223.72,380.80,7.61 225.04,382.26,7.77 226.39,383.70,7.93 227.77,385.10,8.10 229.17,386.48,8.26 230.61,387.83,8.43 232.07,389.15,8.60 233.56,390.44,8.78 235.06,391.71,8.95 236.60,392.94,9.13 238.16,394.14,9.30 239.75,395.31,9.48 241.36,396.45,9.66 242.98,397.55,9.84 244.63,398.62,10.03 246.31,399.67,10.21 248.00,400.67,10.39 249.71,401.64,10.57 251.45,402.57,10.75 253.20,403.48,10.94 254.96,404.35,11.12 256.75,405.18,11.29 258.55,405.97,11.47 260.37,406.73,11.65 262.20,407.46,11.82 264.05,408.14,11.99 265.90,408.79,12.16 267.78,409.40,12.32 269.66,409.98,12.49 271.55,410.51,12.64 273.47,411.01,12.80 275.37,411.47,12.95 277.30,411.89,13.09 279.23,412.27,13.23 281.17,412.62,13.37 283.11,412.92,13.50 285.06,413.19,13.62 287.02,413.41,13.74 288.98,413.61,13.85 290.95,413.76,13.96 292.91,413.87,14.06 294.88,413.94,14.15 296.85,413.97,14.23 298.82,413.96,14.31 300.79,413.92,14.38 302.76,413.83,14.44 304.71,413.70,14.49 306.68,413.53,14.53 308.64,413.33,14.56 310.60,413.08,14.59 312.55,412.80,14.60 314.48,412.48,14.61 316.42,412.11,14.61 318.35,411.72,14.60 320.27,411.28,14.58 322.19,410.80,14.56 324.09,410.29,14.53 325.98,409.74,14.49 327.85,409.15,14.45 329.72,408.52,14.40 331.58,407.86,14.35 333.41,407.15,14.29 335.24,406.41,14.23 337.05,405.64,14.16 338.85,404.83,14.09 340.63,403.99,14.01 342.38,403.11,13.94 344.12,402.19,13.85 345.86,401.23,13.77 347.56,400.25,13.68 349.24,399.23,13.60 350.90,398.18,13.51 352.55,397.09,13.42 354.17,395.98,13.32 355.76,394.82,13.23 357.34,393.64,13.14 358.89,392.42,13.05 360.42,391.18,12.95 361.91,389.91,12.86 363.39,388.60,12.77 364.84,387.27,12.68 366.27,385.90,12.60 367.66,384.51,12.51 369.02,383.10,12.43 370.36,381.65,12.35 371.67,380.18,12.27 372.94,378.68,12.20 374.20,377.16,12.13 375.42,375.61,12.06 376.61,374.03,12.00 377.77,372.45,11.93 378.91,370.83,11.87 380.01,369.20,11.82 381.09,367.54,11.76 382.15,365.87,11.71 383.17,364.18,11.66 384.19,362.47,11.61 385.17,360.76,11.56 386.13,359.04,11.52 387.06,357.29,11.47 387.98,355.53,11.43 388.88,353.76,11.39 389.76,351.99,11.36 390.62,350.19,11.32 391.47,348.39,11.29 392.29,346.60,11.25 393.10,344.78,11.22 393.90,342.96,11.19 394.69,341.13,11.16 395.45,339.30,11.13 396.22,337.46,11.11 396.97,335.62,11.08 397.70,333.76,11.05 398.44,331.91,11.03 399.17,330.05,11.00 399.90,328.19,10.98 400.61,326.33,10.96 401.33,324.46,10.94 402.04,322.59,10.91 404.41,316.36,10.84 405.13,314.49,10.82 405.84,312.63,10.80 406.57,310.75,10.78 407.29,308.89,10.77 408.03,307.02,10.75 408.78,305.16,10.74 409.53,303.30,10.72 410.29,301.44,10.71 411.07,299.58,10.70 411.86,297.73,10.70 412.66,295.89,10.70 413.48,294.05,10.70 414.32,292.22,10.70 415.16,290.40,10.71 415.74,289.18,10.71 416.61,287.36,10.72 417.51,285.56,10.74 418.43,283.76,10.76 419.36,281.98,10.79 420.31,280.20,10.82 421.29,278.43,10.85 422.26,276.68,10.89 423.27,274.93,10.94 424.29,273.19,10.99 425.34,271.46,11.04 426.39,269.75,11.10 427.47,268.04,11.17 428.55,266.35,11.25 429.66,264.66,11.33 430.78,262.99,11.42 431.93,261.33,11.51 433.08,259.68,11.61 434.26,258.04,11.72 435.45,256.42,11.84 436.66,254.80,11.96 437.87,253.20,12.10 439.11,251.61,12.24 440.36,250.03,12.38 441.63,248.47,12.53 442.92,246.91,12.69 444.22,245.37,12.86 445.54,243.85,13.02 446.87,242.33,13.20 448.21,240.84,13.37 449.57,239.35,13.55 450.95,237.88,13.73 452.34,236.42,13.91 453.75,234.97,14.09 455.17,233.54,14.28 456.61,232.12,14.46 458.05,230.72,14.64 459.51,229.34,14.83 460.99,227.96,15.01 462.48,226.61,15.18 463.98,225.26,15.36 465.49,223.94,15.53 467.03,222.62,15.70 468.57,221.33,15.87 470.12,220.05,16.02 471.69,218.78,16.18 473.27,217.53,16.33 474.86,216.29,16.47 476.47,215.07,16.60 478.09,213.87,16.73 479.72,212.69,16.85 481.36,211.52,16.96 483.01,210.37,17.06 484.66,209.22,17.15 486.32,208.10,17.23 487.99,206.97,17.30 489.66,205.87,17.36 491.33,204.76,17.40 493.00,203.66,17.44 493.55,203.29,17.45 495.23,202.19,17.47 496.89,201.09,17.47 498.56,199.98,17.47 500.21,198.88,17.46 501.87,197.76,17.44 503.51,196.64,17.41 505.14,195.50,17.36 506.76,194.35,17.31 508.36,193.19,17.25 509.96,192.01,17.19 511.53,190.81,17.11 513.10,189.60,17.02 514.64,188.36,16.93 516.16,187.11,16.83 517.66,185.82,16.72 519.13,184.50,16.61 520.10,183.62,16.53 521.53,182.27,16.40 522.93,180.88,16.27 524.30,179.47,16.13 525.65,178.03,15.99 526.97,176.57,15.84 528.25,175.07,15.68 529.51,173.55,15.52 530.73,172.02,15.36 531.92,170.45,15.19 533.08,168.86,15.02 534.22,167.25,14.84 535.32,165.62,14.66 536.38,163.95,14.48 537.42,162.28,14.29 538.41,160.59,14.10 539.37,158.86,13.91 540.31,157.13,13.72 541.20,155.38,13.52 542.06,153.60,13.33 542.88,151.81,13.13 543.67,150.01,12.93 544.43,148.19,12.72 545.13,146.36,12.52 545.81,144.51,12.32 546.45,142.64,12.11 547.06,140.76,11.90 547.63,138.88,11.70 548.16,136.98,11.49 548.65,135.07,11.28 549.09,133.17,11.07 549.51,131.23,10.86 549.89,129.30,10.65 550.22,127.36,10.44 550.52,125.42,10.23 550.78,123.47,10.01 550.99,121.50,9.80 551.18,119.54,9.59 551.32,117.59,9.38 551.42,115.61,9.17 551.49,113.65,8.96 551.50,111.68,8.76 551.49,109.71,8.55 551.44,107.74,8.34 551.34,105.77,8.13 551.20,103.81,7.93 551.03,101.84,7.73 550.82,99.89,7.52 550.56,97.93,7.32 550.27,95.99,7.12 549.94,94.04,6.92 549.58,92.11,6.73 549.16,90.18,6.53 548.72,88.26,6.34 548.24,86.36,6.15 547.71,84.46,5.96 547.15,82.57,5.78 546.55,80.69,5.60 545.92,78.83,5.41 545.25,76.98,5.24 544.53,75.15,5.06 543.79,73.31,4.89 543.01,71.52,4.71 542.19,69.72,4.55 541.34,67.95,4.38 540.45,66.19,4.22 539.52,64.45,4.05 538.57,62.73,3.90 537.57,61.03,3.74 536.55,59.35,3.59 535.49,57.69,3.44 534.39,56.05,3.29 533.27,54.44,3.15 532.11,52.84,3.01 530.92,51.27,2.87 529.71,49.72,2.73 528.45,48.21,2.60 527.18,46.71,2.47 525.86,45.24,2.35 524.52,43.80,2.23 523.15,42.39,2.11 521.75,41.00,1.99 520.33,39.63,1.88 518.88,38.30,1.77 517.40,37.00,1.67 515.90,35.73,1.57 514.37,34.49,1.47 512.82,33.28,1.38 511.24,32.10,1.29 509.64,30.95,1.20 508.01,29.83,1.12 506.37,28.75,1.04 504.70,27.70,0.96 503.02,26.68,0.89 501.32,25.70,0.83 499.59,24.75,0.76 497.84,23.84,0.70 496.08,22.96,0.64 494.30,22.11,0.59 492.51,21.31,0.53 490.69,20.54,0.49 488.84,19.78,0.44 486.99,19.01,0.40 485.15,18.25,0.36 483.30,17.48,0.32 481.45,16.72,0.28 479.60,15.95,0.25 477.75,15.19,0.22 475.91,14.42,0.19 474.06,13.66,0.17 472.21,12.89,0.14 470.36,12.13,0.12 466.67,10.60,0.09 462.97,9.07,0.06 459.27,7.54,0.03 455.58,6.01,0.02 451.88,4.48,0.01 448.19,2.95 444.49,1.42" type="driving">
            <param key="origId" value="1_-1"/>
        </lane>
    </edge>