<?xml version="1.0" encoding="UTF-8"?>

<!-- generated on 2026-06-26T15:26:49.162738+01:00 by Eclipse SUMO netconvert 1.27.0
<netconvertConfiguration xmlns:xsi="http://www.w3.org/2001/XMLSchema-instance" xsi:noNamespaceSchemaLocation="http://sumo.dlr.de/xsd/netconvertConfiguration.xsd">

    <input>
        <opendrive-files value="e6mini.xodr"/>
    </input>

    <output>
        <output-file value="../netconvert_nets/e6mini.net.xml"/>
        <output.original-names value="true"/>
    </output>

    <junctions>
        <no-turnarounds.except-deadend value="true"/>
    </junctions>

</netconvertConfiguration>
-->

<net version="1.20" junctionCornerDetail="5" rectangularLaneCut="true" limitTurnSpeed="5.50" xmlns:xsi="http://www.w3.org/2001/XMLSchema-instance" xsi:noNamespaceSchemaLocation="http://sumo.dlr.de/xsd/net_file.xsd">

    <location netOffset="2.60,0.01" convBoundary="0.00,0.00,162.04,1452.43" origBoundary="0.000000,0.000000,0.000000,0.000000" projParameter="+proj=utm +lat_0=37.35429341239328 +lon_0=-122.0859797650754 +k_0=1 +x_0=0 +y_0=0 +datum=WGS84 +geoidgrids=egm96_15.gtx +vunits=m +zone=32 +ellps=GRS80 +units=m +no_defs        "/>


    <edge id=":0.begin_0" function="internal">
        <lane id=":0.begin_0_0" index="0" disallow="pedestrian tram rail_urban rail rail_electric rail_fast ship container cable_car subway aircraft wheelchair scooter drone" speed="5.45" length="12.92" width="3.65" shape="-1.82,0.03 0.38,-3.30 2.58,-4.42 4.80,-3.32 7.02,-0.01"/>
    </edge>
    <edge id=":0.end_0" function="internal">
        <lane id=":0.end_0_0" index="0" disallow="pedestrian tram rail_urban rail rail_electric rail_fast ship container cable_car subway aircraft wheelchair scooter drone" speed="5.45" length="12.92" width="3.65" shape="163.83,1451.07,-2.71 162.30,1454.75,-2.71 160.35,1456.27,-2.71 157.96,1455.61,-2.71 155.15,1452.78,-2.71"/>
    </edge>

    <edge id="-0" from="0.begin" to="0.end" priority="1" type="stop|driving|driving|driving" shape="5.20,0.00 5.25,13.83 5.27,21.73,-0.01 5.33,37.54,-0.02 5.39,53.35,-0.05 5.44,67.18,-0.07 5.50,81.01,-0.10 5.57,96.81,-0.13 5.64,112.62,-0.16 5.68,120.52,-0.18 5.76,134.35,-0.21 5.81,142.26,-0.23 5.86,150.16,-0.25 5.92,160.11,-0.27 5.96,166.09,-0.28 6.02,174.06,-0.30 6.08,182.03,-0.31 6.16,192.00,-0.33 6.23,199.97,-0.35 6.30,207.94,-0.36 6.38,215.91,-0.38 6.47,225.88,-0.39 6.56,233.85,-0.41 6.64,241.82,-0.42 6.73,249.80,-0.44 6.83,257.77,-0.45 6.93,265.74,-0.46 7.03,273.71,-0.48 7.14,281.68,-0.49 7.25,289.65,-0.51 7.36,297.62,-0.52 7.49,305.59,-0.54 7.62,313.56,-0.55 7.75,321.53,-0.57 7.89,329.50,-0.59 8.04,337.47,-0.60 8.20,345.44,-0.62 8.28,349.42,-0.62 8.36,353.40,-0.63 8.45,357.39,-0.64 8.54,361.37,-0.65 8.63,365.36,-0.66 8.72,369.34,-0.66 8.81,373.32,-0.67 8.91,377.28,-0.68 9.01,381.23,-0.68 9.11,385.18,-0.69 9.21,389.13,-0.70 9.32,393.08,-0.71 9.43,397.03,-0.71 9.54,400.98,-0.72 9.66,404.94,-0.73 9.78,408.89,-0.73 9.90,412.84,-0.74 10.02,416.79,-0.75 10.15,420.74,-0.75 10.28,424.69,-0.76 10.42,428.64,-0.77 10.55,432.59,-0.77 10.70,436.54,-0.78 10.84,440.49,-0.78 10.99,444.44,-0.79 11.14,448.39,-0.79 11.30,452.34,-0.80 11.46,456.28,-0.80 11.63,460.23,-0.81 11.80,464.18,-0.81 11.97,468.13,-0.82 12.15,472.08,-0.82 12.33,476.02,-0.82 12.52,479.97,-0.83 12.71,483.92,-0.83 12.90,487.87,-0.83 13.10,491.81,-0.84 13.31,495.76,-0.84 13.52,499.70,-0.84 13.73,503.65,-0.84 13.95,507.59,-0.84 14.18,511.54,-0.85 14.41,515.45,-0.85 14.64,519.33,-0.85 14.88,523.21,-0.85 15.12,527.09,-0.85 15.37,530.96,-0.85 15.62,534.84,-0.85 15.88,538.72,-0.85 16.14,542.60,-0.85 16.41,546.47,-0.84 16.54,548.41,-0.84 16.82,552.29,-0.84 17.10,556.16,-0.84 17.38,560.04,-0.84 17.67,563.91,-0.84 17.96,567.79,-0.84 18.11,569.74,-0.84 18.42,573.64,-0.84 18.72,577.54,-0.83 19.04,581.44,-0.83 19.36,585.34,-0.83 19.68,589.24,-0.83 20.00,593.14,-0.83 20.34,597.04,-0.83 20.67,600.93,-0.83 21.01,604.83,-0.83 21.36,608.73,-0.83 21.71,612.63,-0.83 22.06,616.52,-0.83 22.42,620.42,-0.83 22.78,624.32,-0.83 23.15,628.21,-0.83 23.52,632.11,-0.83 23.89,636.00,-0.83 24.27,639.90,-0.84 24.65,643.79,-0.84 25.04,647.69,-0.84 25.43,651.58,-0.85 25.82,655.47,-0.85 26.22,659.37,-0.86 26.63,663.33,-0.87 27.04,667.30,-0.87 27.46,671.26,-0.88 27.88,675.22,-0.89 28.30,679.19,-0.90 28.73,683.15,-0.91 29.16,687.11,-0.92 29.60,691.08,-0.93 30.03,695.04,-0.94 30.48,699.00,-0.95 30.92,702.96,-0.96 31.37,706.92,-0.97 31.82,710.88,-0.98 32.28,714.84,-1.00 32.74,718.80,-1.01 33.20,722.76,-1.02 33.67,726.72,-1.03 34.14,730.68,-1.04 34.62,734.64,-1.05 35.09,738.59,-1.07 35.57,742.55,-1.08 36.06,746.51,-1.09 36.54,750.46,-1.10 37.03,754.42,-1.11 37.78,760.35,-1.12 38.28,764.31,-1.12 38.78,768.26,-1.13 39.28,772.22,-1.14 40.05,778.15,-1.14 40.82,784.08,-1.14 41.33,788.03,-1.15 41.86,791.98,-1.14 42.38,795.93,-1.14 42.91,799.88,-1.14 43.44,803.83,-1.13 43.97,807.78,-1.13 44.50,811.72,-1.12 45.04,815.67,-1.11 45.59,819.62,-1.10 46.13,823.56,-1.08 46.68,827.51,-1.07 47.24,831.45,-1.05 47.79,835.40,-1.03 48.35,839.34,-1.01 48.92,843.29,-0.99 49.49,847.23,-0.96 50.06,851.17,-0.93 50.63,855.11,-0.90 51.21,859.05,-0.87 51.79,862.99,-0.83 52.38,866.94,-0.79 52.97,870.89,-0.75 53.57,874.83,-0.70 54.17,878.78,-0.66 54.78,882.72,-0.60 55.39,886.66,-0.55 56.01,890.61,-0.48 56.63,894.55,-0.42 56.95,896.52,-0.38 57.26,898.48,-0.35 57.58,900.45,-0.31 57.90,902.42,-0.27 58.22,904.39,-0.24 58.54,906.36,-0.20 58.86,908.28,-0.15 59.18,910.20,-0.11 59.50,912.13,-0.07 59.82,914.05,-0.03 60.14,915.97,0.02 60.47,917.89,0.07 60.80,919.81,0.11 61.12,921.73,0.16 61.79,925.57,0.26 62.46,929.41,0.36 63.13,933.25,0.47 63.81,937.08,0.58 64.50,940.92,0.69 65.20,944.75,0.81 65.90,948.59,0.92 66.61,952.44,1.03 67.33,956.28,1.14 68.05,960.12,1.25 68.77,963.97,1.36 69.50,967.81,1.47 70.24,971.65,1.56 70.97,975.49,1.66 71.71,979.34,1.75 72.45,983.18,1.83 73.19,987.02,1.91 73.93,990.86,1.99 74.69,994.76,2.05 75.44,998.66,2.11 76.19,1002.56,2.17 76.94,1006.46,2.22 77.70,1010.36,2.26 78.45,1014.26,2.30 79.20,1018.16,2.33 79.95,1022.06,2.35 80.70,1025.96,2.37 81.45,1029.87,2.38 82.20,1033.77,2.39 82.95,1037.67,2.39 83.70,1041.57,2.39 84.44,1045.47,2.38 85.19,1049.37,2.37 85.93,1053.28,2.36 86.68,1057.18,2.34 87.42,1061.08,2.31 88.16,1064.99,2.28 88.90,1068.89,2.25 89.64,1072.80,2.21 90.38,1076.70,2.18 91.12,1080.61,2.13 91.86,1084.51,2.09 92.60,1088.42,2.04 93.34,1092.32,1.99 94.07,1096.23,1.94 94.81,1100.13,1.88 95.55,1104.04,1.82 96.28,1107.94,1.76 97.01,1111.85,1.70 98.48,1119.66,1.57 99.95,1127.47,1.43 101.42,1135.28,1.29 102.88,1143.09,1.14 104.35,1150.90,0.98 105.81,1158.71,0.83 107.28,1166.52,0.67 108.75,1174.34,0.51 110.21,1182.11,0.34 113.14,1197.67,0.01 116.07,1213.23,-0.32 119.00,1228.79,-0.65 120.48,1236.56,-0.82 121.95,1244.34,-0.98 123.42,1252.12,-1.14 124.90,1259.89,-1.29 126.38,1267.67,-1.45 127.86,1275.44,-1.60 129.34,1283.22,-1.74 130.82,1290.99,-1.89 132.30,1298.77,-2.02 133.79,1306.54,-2.15 135.28,1314.32,-2.28 136.77,1322.09,-2.40 138.27,1329.86,-2.51 139.76,1337.64,-2.62 141.26,1345.41,-2.72 142.75,1353.10,-2.81 143.48,1356.90,-2.85 144.22,1360.70,-2.89 144.95,1364.51,-2.92 145.69,1368.31,-2.96 146.43,1372.11,-2.99 147.17,1375.92,-3.01 147.91,1379.72,-3.04 148.65,1383.52,-3.05 149.39,1387.33,-3.07 150.14,1391.13,-3.08 150.88,1394.93,-3.09 152.37,1402.53,-3.10 153.89,1410.25,-3.11 154.28,1412.21,-3.11 154.66,1414.17,-3.11 155.05,1416.13,-3.10 155.44,1418.09,-3.10 155.83,1420.05,-3.08 156.21,1422.01,-3.06 156.60,1423.97,-3.04 156.99,1425.93,-3.00 157.38,1427.89,-2.96 157.77,1429.85,-2.92 158.54,1433.77,-2.82 158.93,1435.73,-2.78 159.32,1437.69,-2.74 159.71,1439.65,-2.72 160.10,1441.61,-2.71 162.04,1451.42,-2.71">
        <lane id="-0_0" index="0" disallow="pedestrian tram rail_urban rail rail_electric rail_fast ship container cable_car subway aircraft wheelchair scooter drone" speed="13.89" length="1462.65" width="2.85" shape="17.67,-0.05 17.72,13.79 17.74,21.69,-0.01 17.80,37.49,-0.02 17.86,53.30,-0.05 17.91,67.13,-0.07 17.97,80.96,-0.10 18.04,96.75,-0.13 18.11,112.56,-0.16 18.15,120.45,-0.18 18.23,134.28,-0.21 18.28,142.18,-0.23 18.33,150.08,-0.25 18.39,160.03,-0.27 18.43,166.00,-0.28 18.49,173.97,-0.30 18.55,181.93,-0.31 18.63,191.90,-0.33 18.70,199.86,-0.35 18.77,207.82,-0.36 18.85,215.79,-0.38 18.94,225.75,-0.39 19.03,233.72,-0.41 19.11,241.69,-0.42 19.20,249.65,-0.44 19.30,257.61,-0.45 19.40,265.58,-0.46 19.50,273.55,-0.48 19.61,281.51,-0.49 19.72,289.48,-0.51 19.83,297.43,-0.52 19.96,305.39,-0.54 20.09,313.36,-0.55 20.22,321.32,-0.57 20.36,329.27,-0.59 20.51,337.23,-0.60 20.67,345.19,-0.62 20.75,349.17,-0.62 20.83,353.13,-0.63 20.92,357.11,-0.64 21.01,361.09,-0.65 21.10,365.08,-0.66 21.19,369.06,-0.66 21.28,373.02,-0.67 21.38,376.96,-0.68 21.48,380.91,-0.68 21.58,384.86,-0.69 21.68,388.80,-0.70 21.79,392.73,-0.71 21.90,396.68,-0.71 22.01,400.62,-0.72 22.13,404.56,-0.73 22.25,408.51,-0.73 22.37,412.46,-0.74 22.49,416.40,-0.75 22.62,420.33,-0.75 22.75,424.26,-0.76 22.89,428.21,-0.77 23.02,432.15,-0.77 23.17,436.08,-0.78 23.31,440.03,-0.78 23.46,443.97,-0.79 23.61,447.90,-0.79 23.76,451.83,-0.80 23.92,455.76,-0.80 24.09,459.69,-0.81 24.26,463.64,-0.81 24.43,467.58,-0.82 24.61,471.51,-0.82 24.79,475.44,-0.82 24.98,479.37,-0.83 25.17,483.32,-0.83 25.36,487.25,-0.83 25.56,491.16,-0.84 25.77,495.10,-0.84 25.98,499.04,-0.84 26.19,502.97,-0.84 26.40,506.88,-0.84 26.63,510.81,-0.85 26.86,514.71,-0.85 27.09,518.58,-0.85 27.33,522.44,-0.85 27.57,526.30,-0.85 27.82,530.16,-0.85 28.07,534.02,-0.85 28.33,537.89,-0.85 28.59,541.75,-0.85 28.86,545.61,-0.84 28.98,547.53,-0.84 29.26,551.39,-0.84 29.54,555.26,-0.84 29.82,559.12,-0.84 30.11,562.98,-0.84 30.40,566.85,-0.84 30.55,568.76,-0.84 30.86,572.67,-0.84 31.16,576.55,-0.83 31.47,580.42,-0.83 31.79,584.32,-0.83 32.11,588.22,-0.83 32.43,592.09,-0.83 32.77,595.97,-0.83 33.10,599.86,-0.83 33.44,603.73,-0.83 33.79,607.61,-0.83 34.13,611.51,-0.83 34.48,615.39,-0.83 34.84,619.27,-0.83 35.20,623.16,-0.83 35.57,627.03,-0.83 35.94,630.93,-0.83 36.31,634.80,-0.83 36.69,638.69,-0.84 37.06,642.56,-0.84 37.45,646.45,-0.84 37.84,650.34,-0.85 38.23,654.21,-0.85 38.63,658.09,-0.86 39.04,662.05,-0.87 39.45,666.00,-0.87 39.87,669.94,-0.88 40.29,673.91,-0.89 40.70,677.86,-0.90 41.13,681.80,-0.91 41.56,685.75,-0.92 42.00,689.72,-0.93 42.43,693.66,-0.94 42.88,697.61,-0.95 43.32,701.57,-0.96 43.77,705.51,-0.97 44.21,709.46,-0.98 44.67,713.40,-1.00 45.13,717.36,-1.01 45.59,721.31,-1.02 46.06,725.25,-1.03 46.53,729.19,-1.04 47.01,733.15,-1.05 47.48,737.10,-1.07 47.95,741.03,-1.08 48.44,744.99,-1.09 48.92,748.94,-1.10 49.41,752.87,-1.11 50.16,758.79,-1.12 50.66,762.75,-1.12 51.16,766.70,-1.13 51.65,770.63,-1.14 52.42,776.54,-1.14 53.19,782.48,-1.14 53.70,786.40,-1.15 54.23,790.34,-1.14 54.75,794.29,-1.14 55.27,798.22,-1.14 55.80,802.17,-1.13 56.33,806.12,-1.13 56.86,810.04,-1.12 57.40,813.96,-1.11 57.95,817.91,-1.10 58.49,821.85,-1.08 59.03,825.77,-1.07 59.59,829.71,-1.05 60.14,833.66,-1.03 60.70,837.57,-1.01 61.27,841.51,-0.99 61.84,845.44,-0.96 62.41,849.38,-0.93 62.97,853.31,-0.90 63.55,857.23,-0.87 64.13,861.16,-0.83 64.72,865.10,-0.79 65.31,869.03,-0.75 65.90,872.95,-0.70 66.50,876.89,-0.66 67.11,880.81,-0.60 67.72,884.74,-0.55 68.33,888.67,-0.48 68.95,892.59,-0.42 69.27,894.55,-0.38 69.58,896.51,-0.35 69.89,898.45,-0.31 70.21,900.42,-0.27 70.53,902.39,-0.24 70.85,904.33,-0.20 71.17,906.23,-0.15 71.49,908.15,-0.11 71.81,910.08,-0.07 72.13,912.00,-0.03 72.44,913.89,0.02 72.76,915.78,0.07 73.10,917.73,0.11 73.41,919.62,0.16 74.08,923.43,0.26 74.75,927.27,0.36 75.42,931.09,0.47 76.09,934.89,0.58 76.78,938.70,0.69 77.47,942.51,0.81 78.17,946.34,0.92 78.87,950.16,1.03 79.59,953.98,1.14 80.31,957.82,1.25 81.03,961.66,1.36 81.75,965.46,1.47 82.49,969.30,1.56 83.22,973.15,1.66 83.96,976.98,1.75 84.70,980.82,1.83 85.44,984.66,1.91 86.18,988.49,1.99 86.94,992.39,2.05 87.69,996.30,2.11 88.44,1000.20,2.17 89.19,1004.09,2.22 89.95,1007.99,2.26 90.70,1011.90,2.30 91.45,1015.80,2.33 92.20,1019.70,2.35 92.95,1023.61,2.37 93.70,1027.52,2.38 94.45,1031.41,2.39 95.20,1035.31,2.39 95.95,1039.23,2.39 96.69,1043.13,2.38 97.44,1047.03,2.37 98.18,1050.94,2.36 98.93,1054.84,2.34 99.68,1058.76,2.31 100.42,1062.67,2.28 101.16,1066.57,2.25 101.90,1070.48,2.21 102.64,1074.38,2.18 103.38,1078.29,2.13 104.12,1082.19,2.09 104.86,1086.10,2.04 105.60,1090.01,1.99 106.33,1093.92,1.94 107.07,1097.81,1.88 107.81,1101.73,1.82 108.54,1105.65,1.76 109.27,1109.55,1.70 110.74,1117.35,1.57 112.21,1125.16,1.43 113.68,1132.98,1.29 115.14,1140.79,1.14 116.61,1148.60,0.98 118.07,1156.41,0.83 119.54,1164.21,0.67 121.01,1172.04,0.51 122.47,1179.80,0.34 125.40,1195.36,0.01 128.33,1210.92,-0.32 131.26,1226.47,-0.65 132.74,1234.23,-0.82 134.21,1242.02,-0.98 135.68,1249.79,-1.14 137.15,1257.56,-1.29 138.63,1265.34,-1.45 140.11,1273.11,-1.60 141.59,1280.89,-1.74 143.07,1288.66,-1.89 144.55,1296.43,-2.02 146.04,1304.19,-2.15 147.53,1311.97,-2.28 149.02,1319.73,-2.40 150.52,1327.50,-2.51 152.01,1335.28,-2.62 153.51,1343.04,-2.72 155.00,1350.73,-2.81 155.73,1354.53,-2.85 156.47,1358.33,-2.89 157.20,1362.14,-2.92 157.93,1365.93,-2.96 158.68,1369.73,-2.99 159.42,1373.54,-3.01 160.15,1377.34,-3.04 160.90,1381.14,-3.05 161.63,1384.93,-3.07 162.38,1388.73,-3.08 163.12,1392.54,-3.09 164.61,1400.12,-3.10 166.13,1407.84,-3.11 166.52,1409.81,-3.11 166.90,1411.77,-3.11 167.29,1413.70,-3.10 167.68,1415.66,-3.10 168.07,1417.65,-3.08 168.45,1419.61,-3.06 168.84,1421.54,-3.04 169.23,1423.50,-3.00 169.62,1425.46,-2.96 170.01,1427.44,-2.92 170.78,1431.36,-2.82 171.17,1433.30,-2.78 171.56,1435.26,-2.74 171.95,1437.22,-2.72 172.34,1439.19,-2.71 174.28,1449.00,-2.71" type="stop">
            <param key="origId" value="0_-5"/>
        </lane>
        <lane id="-0_1" index="1" disallow="pedestrian tram rail_urban rail rail_electric rail_fast ship container cable_car subway aircraft wheelchair scooter drone" speed="13.89" length="1462.65" width="3.90" shape="14.30,-0.03 14.35,13.80 14.37,21.70,-0.01 14.43,37.51,-0.02 14.49,53.32,-0.05 14.54,67.14,-0.07 14.60,80.97,-0.10 14.67,96.77,-0.13 14.74,112.58,-0.16 14.78,120.47,-0.18 14.86,134.30,-0.21 14.91,142.20,-0.23 14.96,150.10,-0.25 15.02,160.05,-0.27 15.06,166.02,-0.28 15.12,173.99,-0.30 15.18,181.96,-0.31 15.26,191.92,-0.33 15.33,199.89,-0.35 15.40,207.85,-0.36 15.48,215.82,-0.38 15.57,225.79,-0.39 15.66,233.75,-0.41 15.74,241.72,-0.42 15.83,249.69,-0.44 15.93,257.66,-0.45 16.03,265.63,-0.46 16.13,273.59,-0.48 16.24,281.55,-0.49 16.35,289.52,-0.51 16.46,297.48,-0.52 16.59,305.44,-0.54 16.72,313.41,-0.55 16.85,321.38,-0.57 16.99,329.33,-0.59 17.14,337.29,-0.60 17.30,345.26,-0.62 17.38,349.24,-0.62 17.46,353.21,-0.63 17.55,357.18,-0.64 17.64,361.16,-0.65 17.73,365.15,-0.66 17.82,369.13,-0.66 17.91,373.10,-0.67 18.01,377.05,-0.68 18.11,381.00,-0.68 18.21,384.95,-0.69 18.31,388.89,-0.70 18.42,392.83,-0.71 18.53,396.78,-0.71 18.64,400.72,-0.72 18.76,404.66,-0.73 18.88,408.61,-0.73 19.00,412.56,-0.74 19.12,416.50,-0.75 19.25,420.44,-0.75 19.37,424.38,-0.76 19.51,428.33,-0.77 19.64,432.27,-0.77 19.79,436.21,-0.78 19.93,440.16,-0.78 20.08,444.09,-0.79 20.23,448.03,-0.79 20.39,451.97,-0.80 20.55,455.90,-0.80 20.72,459.84,-0.81 20.89,463.79,-0.81 21.06,467.73,-0.82 21.24,471.67,-0.82 21.42,475.59,-0.82 21.61,479.53,-0.83 21.80,483.48,-0.83 21.99,487.42,-0.83 22.19,491.34,-0.84 22.40,495.28,-0.84 22.61,499.22,-0.84 22.82,503.15,-0.84 23.04,507.07,-0.84 23.26,511.01,-0.85 23.49,514.91,-0.85 23.72,518.78,-0.85 23.96,522.65,-0.85 24.20,526.52,-0.85 24.45,530.37,-0.85 24.70,534.24,-0.85 24.96,538.11,-0.85 25.22,541.98,-0.85 25.49,545.84,-0.84 25.62,547.77,-0.84 25.90,551.63,-0.84 26.18,555.50,-0.84 26.46,559.37,-0.84 26.74,563.23,-0.84 27.03,567.11,-0.84 27.18,569.03,-0.84 27.49,572.93,-0.84 27.79,576.82,-0.83 28.11,580.70,-0.83 28.43,584.60,-0.83 28.75,588.50,-0.83 29.07,592.37,-0.83 29.41,596.26,-0.83 29.74,600.15,-0.83 30.07,604.03,-0.83 30.42,607.92,-0.83 30.77,611.82,-0.83 31.12,615.69,-0.83 31.48,619.58,-0.83 31.84,623.47,-0.83 32.21,627.35,-0.83 32.58,631.25,-0.83 32.95,635.13,-0.83 33.33,639.02,-0.84 33.71,642.89,-0.84 34.09,646.78,-0.84 34.48,650.67,-0.85 34.87,654.55,-0.85 35.27,658.44,-0.86 35.68,662.39,-0.87 36.09,666.35,-0.87 36.51,670.30,-0.88 36.93,674.26,-0.89 37.35,678.22,-0.90 37.78,682.17,-0.91 38.21,686.12,-0.92 38.65,690.09,-0.93 39.07,694.04,-0.94 39.52,697.98,-0.95 39.96,701.94,-0.96 40.41,705.89,-0.97 40.86,709.84,-0.98 41.32,713.79,-1.00 41.78,717.75,-1.01 42.24,721.70,-1.02 42.71,725.65,-1.03 43.18,729.60,-1.04 43.66,733.55,-1.05 44.13,737.50,-1.07 44.60,741.44,-1.08 45.09,745.40,-1.09 45.57,749.35,-1.10 46.06,753.29,-1.11 46.81,759.21,-1.12 47.31,763.17,-1.12 47.81,767.12,-1.13 48.31,771.06,-1.14 49.07,776.98,-1.14 49.84,782.91,-1.14 50.35,786.84,-1.15 50.88,790.78,-1.14 51.40,794.73,-1.14 51.93,798.67,-1.14 52.46,802.62,-1.13 52.99,806.57,-1.13 53.52,810.50,-1.12 54.05,814.43,-1.11 54.60,818.37,-1.10 55.14,822.31,-1.08 55.69,826.24,-1.07 56.25,830.18,-1.05 56.80,834.13,-1.03 57.36,838.05,-1.01 57.93,841.99,-0.99 58.50,845.93,-0.96 59.07,849.87,-0.93 59.63,853.80,-0.90 60.21,857.72,-0.87 60.79,861.66,-0.83 61.38,865.60,-0.79 61.97,869.53,-0.75 62.57,873.46,-0.70 63.16,877.40,-0.66 63.77,881.33,-0.60 64.38,885.26,-0.55 65.00,889.20,-0.48 65.62,893.12,-0.42 65.94,895.08,-0.38 66.25,897.04,-0.35 66.56,898.99,-0.31 66.88,900.96,-0.27 67.20,902.93,-0.24 67.52,904.88,-0.20 67.84,906.78,-0.15 68.16,908.71,-0.11 68.48,910.64,-0.07 68.80,912.55,-0.03 69.11,914.45,0.02 69.44,916.35,0.07 69.77,918.29,0.11 70.09,920.19,0.16 70.75,924.01,0.26 71.42,927.85,0.36 72.09,931.67,0.47 72.77,935.48,0.58 73.45,939.30,0.69 74.15,943.12,0.81 74.85,946.95,0.92 75.56,950.78,1.03 76.27,954.60,1.14 76.99,958.45,1.25 77.71,962.28,1.36 78.44,966.10,1.47 79.18,969.94,1.56 79.91,973.78,1.66 80.65,977.62,1.75 81.39,981.46,1.83 82.13,985.30,1.91 82.86,989.13,1.99 83.62,993.03,2.05 84.38,996.94,2.11 85.13,1000.84,2.17 85.87,1004.73,2.22 86.63,1008.63,2.26 87.39,1012.54,2.30 88.14,1016.44,2.33 88.89,1020.34,2.35 89.64,1024.24,2.37 90.39,1028.15,2.38 91.14,1032.05,2.39 91.89,1035.95,2.39 92.64,1039.86,2.39 93.38,1043.76,2.38 94.13,1047.66,2.37 94.87,1051.57,2.36 95.62,1055.47,2.34 96.36,1059.39,2.31 97.10,1063.30,2.28 97.84,1067.20,2.25 98.58,1071.11,2.21 99.32,1075.01,2.18 100.06,1078.92,2.13 100.80,1082.82,2.09 101.54,1086.73,2.04 102.28,1090.64,1.99 103.01,1094.55,1.94 103.75,1098.44,1.88 104.49,1102.36,1.82 105.23,1106.27,1.76 105.95,1110.17,1.70 107.42,1117.98,1.57 108.89,1125.79,1.43 110.36,1133.60,1.29 111.82,1141.41,1.14 113.29,1149.22,0.98 114.75,1157.03,0.83 116.22,1164.84,0.67 117.69,1172.66,0.51 119.15,1180.43,0.34 122.08,1195.99,0.01 125.01,1211.55,-0.32 127.94,1227.10,-0.65 129.42,1234.86,-0.82 130.89,1242.65,-0.98 132.36,1250.42,-1.14 133.84,1258.19,-1.29 135.32,1265.97,-1.45 136.80,1273.74,-1.60 138.28,1281.52,-1.74 139.76,1289.29,-1.89 141.24,1297.06,-2.02 142.73,1304.83,-2.15 144.22,1312.61,-2.28 145.71,1320.37,-2.40 147.21,1328.14,-2.51 148.70,1335.92,-2.62 150.19,1343.68,-2.72 151.68,1351.37,-2.81 152.41,1355.17,-2.85 153.15,1358.97,-2.89 153.88,1362.78,-2.92 154.62,1366.57,-2.96 155.36,1370.37,-2.99 156.10,1374.18,-3.01 156.84,1377.98,-3.04 157.58,1381.78,-3.05 158.32,1385.58,-3.07 159.07,1389.38,-3.08 159.81,1393.18,-3.09 161.30,1400.78,-3.10 162.82,1408.49,-3.11 163.21,1410.46,-3.11 163.59,1412.42,-3.11 163.98,1414.35,-3.10 164.37,1416.31,-3.10 164.76,1418.30,-3.08 165.14,1420.26,-3.06 165.53,1422.19,-3.04 165.92,1424.15,-3.00 166.31,1426.11,-2.96 166.70,1428.09,-2.92 167.47,1432.01,-2.82 167.86,1433.95,-2.78 168.25,1435.91,-2.74 168.64,1437.87,-2.72 169.03,1439.84,-2.71 170.97,1449.65,-2.71" type="driving">
            <param key="origId" value="0_-4"/>
        </lane>
        <lane id="-0_2" index="2" disallow="pedestrian tram rail_urban rail rail_electric rail_fast ship container cable_car subway aircraft wheelchair scooter drone" speed="13.89" length="1462.65" width="3.50" shape="10.60,-0.02 10.65,13.81 10.67,21.71,-0.01 10.73,37.52,-0.02 10.79,53.33,-0.05 10.84,67.16,-0.07 10.90,80.99,-0.10 10.97,96.79,-0.13 11.04,112.59,-0.16 11.08,120.49,-0.18 11.16,134.32,-0.21 11.21,142.23,-0.23 11.26,150.13,-0.25 11.32,160.08,-0.27 11.36,166.05,-0.28 11.42,174.02,-0.30 11.48,181.99,-0.31 11.56,191.95,-0.33 11.63,199.92,-0.35 11.70,207.89,-0.36 11.78,215.86,-0.38 11.87,225.83,-0.39 11.96,233.79,-0.41 12.04,241.76,-0.42 12.13,249.74,-0.44 12.23,257.70,-0.45 12.33,265.67,-0.46 12.43,273.64,-0.48 12.54,281.61,-0.49 12.65,289.58,-0.51 12.76,297.54,-0.52 12.89,305.50,-0.54 13.02,313.47,-0.55 13.15,321.44,-0.57 13.29,329.40,-0.59 13.44,337.37,-0.60 13.60,345.33,-0.62 13.68,349.31,-0.62 13.76,353.28,-0.63 13.85,357.27,-0.64 13.94,361.25,-0.65 14.03,365.24,-0.66 14.12,369.22,-0.66 14.21,373.19,-0.67 14.31,377.14,-0.68 14.41,381.09,-0.68 14.51,385.04,-0.69 14.61,388.99,-0.70 14.72,392.93,-0.71 14.83,396.88,-0.71 14.94,400.82,-0.72 15.06,404.78,-0.73 15.18,408.73,-0.73 15.30,412.68,-0.74 15.42,416.62,-0.75 15.55,420.56,-0.75 15.68,424.51,-0.76 15.82,428.46,-0.77 15.95,432.40,-0.77 16.10,436.34,-0.78 16.24,440.29,-0.78 16.39,444.24,-0.79 16.54,448.18,-0.79 16.70,452.12,-0.80 16.86,456.05,-0.80 17.03,460.00,-0.81 17.20,463.95,-0.81 17.36,467.89,-0.82 17.54,471.83,-0.82 17.72,475.77,-0.82 17.91,479.71,-0.83 18.10,483.66,-0.83 18.29,487.60,-0.83 18.49,491.53,-0.84 18.70,495.47,-0.84 18.91,499.41,-0.84 19.12,503.36,-0.84 19.34,507.28,-0.84 19.57,511.22,-0.85 19.80,515.13,-0.85 20.03,519.00,-0.85 20.27,522.88,-0.85 20.51,526.75,-0.85 20.76,530.61,-0.85 21.01,534.49,-0.85 21.27,538.36,-0.85 21.53,542.23,-0.85 21.80,546.10,-0.84 21.93,548.03,-0.84 22.21,551.90,-0.84 22.49,555.77,-0.84 22.77,559.64,-0.84 23.05,563.51,-0.84 23.34,567.38,-0.84 23.49,569.32,-0.84 23.80,573.22,-0.84 24.10,577.11,-0.83 24.42,581.00,-0.83 24.74,584.90,-0.83 25.06,588.80,-0.83 25.38,592.68,-0.83 25.72,596.58,-0.83 26.05,600.47,-0.83 26.39,604.35,-0.83 26.74,608.25,-0.83 27.09,612.15,-0.83 27.44,616.03,-0.83 27.80,619.92,-0.83 28.16,623.82,-0.83 28.53,627.70,-0.83 28.90,631.60,-0.83 29.27,635.48,-0.83 29.64,639.38,-0.84 30.02,643.26,-0.84 30.41,647.15,-0.84 30.80,651.04,-0.85 31.19,654.93,-0.85 31.59,658.82,-0.86 32.00,662.77,-0.87 32.41,666.74,-0.87 32.83,670.69,-0.88 33.25,674.65,-0.89 33.67,678.61,-0.90 34.10,682.57,-0.91 34.53,686.52,-0.92 34.97,690.49,-0.93 35.40,694.44,-0.94 35.85,698.40,-0.95 36.29,702.36,-0.96 36.74,706.31,-0.97 37.18,710.26,-0.98 37.64,714.22,-1.00 38.10,718.18,-1.01 38.56,722.13,-1.02 39.03,726.08,-1.03 39.50,730.04,-1.04 39.98,734.00,-1.05 40.45,737.95,-1.07 40.93,741.89,-1.08 41.42,745.85,-1.09 41.90,749.80,-1.10 42.39,753.75,-1.11 43.14,759.67,-1.12 43.64,763.63,-1.12 44.14,767.58,-1.13 44.64,771.53,-1.14 45.41,777.45,-1.14 46.18,783.39,-1.14 46.68,787.33,-1.15 47.21,791.27,-1.14 47.73,795.22,-1.14 48.26,799.16,-1.14 48.79,803.11,-1.13 49.32,807.06,-1.13 49.85,810.99,-1.12 50.39,814.93,-1.11 50.94,818.88,-1.10 51.48,822.82,-1.08 52.03,826.76,-1.07 52.59,830.70,-1.05 53.14,834.65,-1.03 53.70,838.57,-1.01 54.26,842.52,-0.99 54.83,846.46,-0.96 55.40,850.40,-0.93 55.97,854.33,-0.90 56.55,858.26,-0.87 57.13,862.20,-0.83 57.72,866.14,-0.79 58.31,870.08,-0.75 58.91,874.02,-0.70 59.51,877.96,-0.66 60.12,881.89,-0.60 60.73,885.83,-0.55 61.34,889.77,-0.48 61.96,893.70,-0.42 62.28,895.67,-0.38 62.59,897.63,-0.35 62.91,899.58,-0.31 63.23,901.55,-0.27 63.55,903.52,-0.24 63.87,905.48,-0.20 64.19,907.39,-0.15 64.51,909.31,-0.11 64.83,911.24,-0.07 65.15,913.16,-0.03 65.46,915.07,0.02 65.79,916.98,0.07 66.12,918.91,0.11 66.44,920.82,0.16 67.11,924.64,0.26 67.78,928.48,0.36 68.45,932.31,0.47 69.13,936.13,0.58 69.81,939.96,0.69 70.51,943.78,0.81 71.21,947.62,0.92 71.92,951.45,1.03 72.64,955.28,1.14 73.36,959.13,1.25 74.08,962.97,1.36 74.80,966.79,1.47 75.54,970.63,1.56 76.27,974.48,1.66 77.01,978.32,1.75 77.75,982.16,1.83 78.49,986.00,1.91 79.23,989.83,1.99 79.99,993.73,2.05 80.74,997.64,2.11 81.49,1001.54,2.17 82.24,1005.43,2.22 83.00,1009.33,2.26 83.75,1013.24,2.30 84.50,1017.14,2.33 85.25,1021.04,2.35 86.00,1024.94,2.37 86.75,1028.85,2.38 87.50,1032.75,2.39 88.25,1036.65,2.39 89.00,1040.56,2.39 89.74,1044.46,2.38 90.49,1048.36,2.37 91.23,1052.27,2.36 91.98,1056.17,2.34 92.73,1060.07,2.31 93.47,1063.98,2.28 94.21,1067.88,2.25 94.95,1071.79,2.21 95.69,1075.69,2.18 96.43,1079.60,2.13 97.17,1083.50,2.09 97.91,1087.41,2.04 98.65,1091.32,1.99 99.38,1095.23,1.94 100.12,1099.12,1.88 100.86,1103.04,1.82 101.59,1106.95,1.76 102.32,1110.85,1.70 103.79,1118.66,1.57 105.26,1126.47,1.43 106.73,1134.28,1.29 108.19,1142.09,1.14 109.66,1149.90,0.98 111.12,1157.71,0.83 112.59,1165.52,0.67 114.06,1173.34,0.51 115.52,1181.11,0.34 118.45,1196.67,0.01 121.38,1212.23,-0.32 124.31,1227.79,-0.65 125.79,1235.55,-0.82 127.26,1243.34,-0.98 128.73,1251.11,-1.14 130.20,1258.88,-1.29 131.68,1266.66,-1.45 133.16,1274.43,-1.60 134.64,1282.21,-1.74 136.12,1289.98,-1.89 137.60,1297.76,-2.02 139.09,1305.52,-2.15 140.58,1313.30,-2.28 142.07,1321.07,-2.40 143.57,1328.84,-2.51 145.06,1336.62,-2.62 146.56,1344.38,-2.72 148.05,1352.08,-2.81 148.78,1355.87,-2.85 149.52,1359.68,-2.89 150.25,1363.49,-2.92 150.99,1367.28,-2.96 151.73,1371.08,-2.99 152.47,1374.89,-3.01 153.21,1378.69,-3.04 153.95,1382.49,-3.05 154.69,1386.29,-3.07 155.44,1390.09,-3.08 156.18,1393.89,-3.09 157.67,1401.49,-3.10 159.19,1409.20,-3.11 159.58,1411.17,-3.11 159.96,1413.13,-3.11 160.35,1415.08,-3.10 160.74,1417.04,-3.10 161.13,1419.01,-3.08 161.51,1420.97,-3.06 161.90,1422.92,-3.04 162.29,1424.88,-3.00 162.68,1426.84,-2.96 163.07,1428.80,-2.92 163.84,1432.72,-2.82 164.23,1434.68,-2.78 164.62,1436.64,-2.74 165.01,1438.60,-2.72 165.40,1440.56,-2.71 167.34,1450.37,-2.71" type="driving">
            <param key="origId" value="0_-3"/>
        </lane>