<?xml version="1.0" encoding="UTF-8"?>

<!-- generated on 2026-06-29T15:14:56.501468+01:00 by Eclipse SUMO netedit 1.27.0
<neteditConfiguration xmlns:xsi="http://www.w3.org/2001/XMLSchema-instance" xsi:noNamespaceSchemaLocation="http://sumo.dlr.de/xsd/neteditConfiguration.xsd">

    <input>
        <sumo-net-file value="../netconvert_nets/man-mod_curve_r100.net.xml"/>
    </input>

    <output>
        <output-file value="../netconvert_nets/man-mod_curve_r100.net.xml"/>
    </output>

    <processing>
        <geometry.min-radius.fix.railways value="false"/>
        <geometry.avoid-overlap value="false"/>
        <geometry.max-grade.fix value="false"/>
        <offset.disable-normalization value="true"/>
    </processing>

    <junctions>
        <no-internal-links value="true"/>
        <no-turnarounds value="true"/>
        <rectangular-lane-cut value="1"/>
    </junctions>

</neteditConfiguration>
-->

<net version="1.20" junctionCornerDetail="5" rectangularLaneCut="true" limitTurnSpeed="5.50" avoidOverlap="0" xmlns:xsi="http://www.w3.org/2001/XMLSchema-instance" xsi:noNamespaceSchemaLocation="http://sumo.dlr.de/xsd/net_file.xsd">

    <location netOffset="0.00,0.00" convBoundary="0.00,0.00,600.00,200.00" origBoundary="0.000000,0.000000,0.000000,0.000000" projParameter="+proj=utm +lat_0=37.35429341239328 +lon_0=-122.0859797650754 +k_0=1 +x_0=0 +y_0=0 +datum=WGS84 +geoidgrids=egm96_15.gtx +vunits=m +zone=32 +ellps=GRS80 +units=m +no_defs        "/>

    <type id="driving" priority="1" speed="13.89" disallow="pedestrian tram rail_urban rail rail_electric rail_fast ship container cable_car subway aircraft wheelchair scooter drone" width="3.65"/>

    <edge id="-0" from="0.begin" to="0.end" priority="1" type="driving" shape="0.00,0.00 500.00,0.00 502.00,0.02 504.00,0.08 506.00,0.18 507.99,0.32 509.98,0.50 511.97,0.72 513.95,0.98 515.93,1.28 517.90,1.62 519.87,1.99 521.82,2.41 523.77,2.87 525.71,3.36 527.64,3.89 529.55,4.47 531.46,5.08 533.35,5.72 535.23,6.41 537.09,7.13 538.94,7.89 540.78,8.69 542.59,9.52 544.39,10.39 546.18,11.30 547.94,12.24 549.69,13.22 551.41,14.23 553.12,15.27 554.80,16.35 556.46,17.47 558.10,18.61 559.72,19.79 561.31,21.00 562.88,22.24 564.42,23.52 565.94,24.82 567.43,26.15 568.89,27.52 570.33,28.91 571.74,30.33 573.11,31.78 574.46,33.25 575.78,34.76 577.07,36.28 578.33,37.84 579.56,39.42 580.76,41.02 581.92,42.65 583.05,44.30 584.15,45.97 585.21,47.66 586.24,49.38 587.24,51.11 588.20,52.87 589.12,54.64 590.01,56.43 590.86,58.24 591.68,60.07 592.46,61.91 593.20,63.76 593.91,65.64 594.58,67.52 595.21,69.42 595.80,71.33 596.36,73.25 596.87,75.18 597.35,77.12 597.79,79.08 598.19,81.04 598.54,83.00 598.87,84.98 599.15,86.96 599.39,88.94 599.59,90.93 599.75,92.93 599.87,94.92 599.95,96.92 599.99,98.92 600.00,100.00 600.00,200.00">
        <lane id="-0_0" index="0" disallow="pedestrian tram rail_urban rail rail_electric rail_fast ship container cable_car subway aircraft wheelchair scooter drone" speed="13.89" length="757.08" width="3.07" shape="-0.00,-4.60 500.00,-4.60 502.09,-4.58 504.18,-4.52 506.28,-4.42 508.36,-4.27 510.44,-4.08 512.52,-3.85 514.59,-3.58 516.67,-3.27 518.72,-2.91 520.78,-2.52 522.83,-2.08 524.86,-1.60 526.88,-1.09 528.92,-0.53 530.92,0.07 532.90,0.71 534.88,1.38 536.85,2.10 538.80,2.85 540.73,3.65 542.66,4.49 544.55,5.35 546.44,6.26 548.31,7.22 550.15,8.20 551.98,9.23 553.77,10.28 555.56,11.37 557.33,12.50 559.06,13.67 560.77,14.86 562.47,16.10 564.13,17.36 565.78,18.66 567.39,20.00 568.97,21.35 570.54,22.75 572.06,24.18 573.56,25.63 575.05,27.13 576.48,28.64 577.89,30.18 579.27,31.75 580.62,33.34 581.94,34.98 583.22,36.62 584.48,38.30 585.70,40.01 586.87,41.73 588.02,43.48 589.14,45.25 590.21,47.04 591.26,48.86 592.26,50.71 593.22,52.55 594.16,54.43 595.05,56.32 595.90,58.23 596.72,60.16 597.49,62.09 598.23,64.05 598.93,66.02 599.60,68.02 600.21,70.01 600.80,72.02 601.33,74.04 601.83,76.06 602.29,78.12 602.71,80.17 603.08,82.22 603.42,84.28 603.72,86.36 603.97,88.43 604.18,90.52 604.34,92.61 604.47,94.69 604.55,96.78 604.59,98.85 604.61,99.98 604.61,200.00">
            <param key="origId" value="0_-1"/>
        </lane>
        <lane id="-0_1" index="1" disallow="pedestrian tram rail_urban rail rail_electric rail_fast ship container cable_car subway aircraft wheelchair scooter drone" speed="13.89" length="757.08" width="3.07" shape="-0.00,-1.53 500.00,-1.53 502.03,-1.51 504.06,-1.45 506.09,-1.35 508.11,-1.21 510.13,-1.03 512.15,-0.80 514.16,-0.54 516.18,-0.24 518.17,0.11 520.17,0.49 522.16,0.91 524.13,1.38 526.10,1.88 528.07,2.42 530.01,3.00 531.94,3.62 533.86,4.27 535.77,4.97 537.66,5.70 539.54,6.48 541.41,7.29 543.24,8.13 545.07,9.01 546.89,9.94 548.68,10.89 550.45,11.89 552.20,12.91 553.93,13.97 555.64,15.07 557.33,16.20 558.99,17.36 560.64,18.56 562.25,19.79 563.85,21.05 565.41,22.35 566.95,23.66 568.47,25.02 569.95,26.41 571.41,27.82 572.84,29.26 574.23,30.73 575.60,32.23 576.94,33.76 578.25,35.30 579.53,36.89 580.78,38.49 582.00,40.11 583.18,41.77 584.32,43.44 585.44,45.14 586.52,46.86 587.56,48.60 588.58,50.36 589.55,52.15 590.49,53.94 591.39,55.76 592.26,57.60 593.09,59.46 593.88,61.33 594.63,63.20 595.35,65.11 596.03,67.02 596.67,68.95 597.27,70.89 597.84,72.84 598.36,74.80 598.84,76.77 599.29,78.76 599.70,80.75 600.05,82.74 600.39,84.75 600.67,86.76 600.92,88.77 601.12,90.79 601.28,92.82 601.40,94.84 601.48,96.87 601.52,98.90 601.53,99.99 601.53,200.00" type="driving">
            <param key="origId" value="0_1"/>
        </lane>
    </edge>

    <junction id="0.begin" type="dead_end" x="0.00" y="0.00" incLanes="" intLanes="" shape="-0.00,-0.00 -0.00,-6.14"/>
    <junction id="0.end" type="dead_end" x="600.00" y="200.00" incLanes="-0_0 -0_1" intLanes="" shape="606.14,200.00 600.00,200.00"/>

</net>
