<?xml version="1.0" encoding="UTF-8"?>

<!-- generated on 2026-06-29T14:07:35.116214+01:00 by Eclipse SUMO netconvert 1.27.0
<netconvertConfiguration xmlns:xsi="http://www.w3.org/2001/XMLSchema-instance" xsi:noNamespaceSchemaLocation="http://sumo.dlr.de/xsd/netconvertConfiguration.xsd">

    <input>
        <opendrive-files value="multi_intersections.xodr"/>
    </input>

    <output>
        <output-file value="../netconvert_nets/multi_intersections.net.xml"/>
        <output.original-names value="true"/>
    </output>

    <junctions>
        <no-turnarounds.except-deadend value="true"/>
    </junctions>

</netconvertConfiguration>
-->

<net version="1.20" junctionCornerDetail="5" rectangularLaneCut="true" limitTurnSpeed="5.50" xmlns:xsi="http://www.w3.org/2001/XMLSchema-instance" xsi:noNamespaceSchemaLocation="http://sumo.dlr.de/xsd/net_file.xsd">

    <location netOffset="-50.00,240.00" convBoundary="0.00,0.00,600.00,480.00" origBoundary="50.00,-240.00,650.00,240.00" projParameter="!"/>

    <type id="driving" priority="1" speed="13.89" disallow="pedestrian tram rail_urban rail rail_electric rail_fast ship container cable_car subway aircraft wheelchair scooter drone" width="3.65"/>

    <edge id=":146_0" function="internal">
        <lane id=":146_0_0" index="0" disallow="pedestrian tram rail_urban rail rail_electric rail_fast ship container cable_car subway aircraft wheelchair scooter drone" speed="8.18" length="14.72" width="3.75" shape="238.12,251.00 237.55,247.01 235.84,244.16 232.99,242.45 229.00,241.88">
            <param key="origId" value="199_-1"/>
            <param key="signalID" value="305 290 304 291"/>
        </lane>
    </edge>
    <edge id=":146_1" function="internal">
        <lane id=":146_1_0" index="0" disallow="pedestrian tram rail_urban rail rail_electric rail_fast ship container cable_car subway aircraft wheelchair scooter drone" speed="13.89" length="23.00" width="3.75" shape="238.12,251.00 238.12,228.00">
            <param key="origId" value="204_-1"/>
            <param key="signalID" value="305 290 304 291"/>
        </lane>
    </edge>
    <edge id=":146_2" function="internal">
        <lane id=":146_2_0" index="0" disallow="pedestrian tram rail_urban rail rail_electric rail_fast ship container cable_car subway aircraft wheelchair scooter drone" speed="9.61" length="5.91" width="3.75" shape="238.12,251.00 238.93,245.37 239.04,245.18">
            <param key="origId" value="211_-1"/>
            <param key="signalID" value="305 290 304 291"/>
        </lane>
    </edge>
    <edge id=":146_12" function="internal">
        <lane id=":146_12_0" index="0" disallow="pedestrian tram rail_urban rail rail_electric rail_fast ship container cable_car subway aircraft wheelchair scooter drone" speed="9.61" length="14.86" width="3.75" shape="239.04,245.18 241.34,241.34 245.37,238.93 251.00,238.12">
            <param key="origId" value="211_-1"/>
            <param key="signalID" value="305 290 304 291"/>
        </lane>
    </edge>
    <edge id=":146_3" function="internal">
        <lane id=":146_3_0" index="0" disallow="pedestrian tram rail_urban rail rail_electric rail_fast ship container cable_car subway aircraft wheelchair scooter drone" speed="8.18" length="14.72" width="3.75" shape="251.00,241.88 247.01,242.45 244.16,244.16 242.45,247.01 241.88,251.00">
            <param key="origId" value="205_-1"/>
        </lane>
    </edge>
    <edge id=":146_4" function="internal">
        <lane id=":146_4_0" index="0" disallow="pedestrian tram rail_urban rail rail_electric rail_fast ship container cable_car subway aircraft wheelchair scooter drone" speed="13.89" length="22.00" width="3.75" shape="251.00,241.88 229.00,241.88">
            <param key="origId" value="207_-1"/>
        </lane>
    </edge>
    <edge id=":146_5" function="internal">
        <lane id=":146_5_0" index="0" disallow="pedestrian tram rail_urban rail rail_electric rail_fast ship container cable_car subway aircraft wheelchair scooter drone" speed="9.79" length="11.62" width="3.75" shape="251.00,241.88 245.37,241.01 241.34,238.41 240.79,237.42">
            <param key="origId" value="210_-1"/>
        </lane>
    </edge>
    <edge id=":146_13" function="internal">
        <lane id=":146_13_0" index="0" disallow="pedestrian tram rail_urban rail rail_electric rail_fast ship container cable_car subway aircraft wheelchair scooter drone" speed="9.79" length="9.95" width="3.75" shape="240.79,237.42 238.93,234.07 238.12,228.00">
            <param key="origId" value="210_-1"/>
        </lane>
    </edge>
    <edge id=":146_6" function="internal">
        <lane id=":146_6_0" index="0" disallow="pedestrian tram rail_urban rail rail_electric rail_fast ship container cable_car subway aircraft wheelchair scooter drone" speed="7.62" length="12.58" width="3.75" shape="241.88,228.00 242.45,230.79 244.16,232.78 247.01,233.98 251.00,234.38">
            <param key="origId" value="206_-1"/>
            <param key="signalID" value="307 286 308 281"/>
        </lane>
    </edge>
    <edge id=":146_7" function="internal">
        <lane id=":146_7_0" index="0" disallow="pedestrian tram rail_urban rail rail_electric rail_fast ship container cable_car subway aircraft wheelchair scooter drone" speed="13.89" length="23.00" width="3.75" shape="241.88,228.00 241.88,251.00">
            <param key="origId" value="203_-1"/>
            <param key="signalID" value="307 286 308 281"/>
        </lane>
    </edge>
    <edge id=":146_8" function="internal">
        <lane id=":146_8_0" index="0" disallow="pedestrian tram rail_urban rail rail_electric rail_fast ship container cable_car subway aircraft wheelchair scooter drone" speed="9.79" length="6.36" width="3.75" shape="241.88,228.00 241.07,234.07 240.95,234.28">
            <param key="origId" value="200_1"/>
            <param key="signalID" value="307 286 308 281"/>
        </lane>
    </edge>
    <edge id=":146_14" function="internal">
        <lane id=":146_14_0" index="0" disallow="pedestrian tram rail_urban rail rail_electric rail_fast ship container cable_car subway aircraft wheelchair scooter drone" speed="9.79" length="15.21" width="3.75" shape="240.95,234.28 238.66,238.41 234.63,241.01 229.00,241.88">
            <param key="origId" value="200_1"/>
            <param key="signalID" value="307 286 308 281"/>
        </lane>
    </edge>
    <edge id=":146_9" function="internal">
        <lane id=":146_9_0" index="0" disallow="pedestrian tram rail_urban rail rail_electric rail_fast ship container cable_car subway aircraft wheelchair scooter drone" speed="7.62" length="12.58" width="3.75" shape="229.00,234.38 232.99,233.98 235.84,232.78 237.55,230.79 238.12,228.00">
            <param key="origId" value="214_-1"/>
        </lane>
    </edge>
    <edge id=":146_10" function="internal">
        <lane id=":146_10_0" index="0" disallow="pedestrian tram rail_urban rail rail_electric rail_fast ship container cable_car subway aircraft wheelchair scooter drone" speed="13.89" length="22.00" width="3.75" shape="229.00,234.38 251.00,234.38">
            <param key="origId" value="208_-1"/>
        </lane>
    </edge>
    <edge id=":146_11" function="internal">
        <lane id=":146_11_0" index="0" disallow="pedestrian tram rail_urban rail rail_electric rail_fast ship container cable_car subway aircraft wheelchair scooter drone" speed="9.61" length="5.91" width="3.75" shape="229.00,238.12 234.63,238.93 234.82,239.04">
            <param key="origId" value="201_-1"/>
        </lane>
    </edge>
    <edge id=":146_15" function="internal">
        <lane id=":146_15_0" index="0" disallow="pedestrian tram rail_urban rail rail_electric rail_fast ship container cable_car subway aircraft wheelchair scooter drone" speed="9.61" length="14.86" width="3.75" shape="234.82,239.04 238.66,241.34 241.07,245.37 241.88,251.00">
            <param key="origId" value="201_-1"/>
        </lane>
    </edge>
    <edge id=":148_0" function="internal">
        <lane id=":148_0_0" index="0" disallow="pedestrian tram rail_urban rail rail_electric rail_fast ship container cable_car subway aircraft wheelchair scooter drone" speed="13.89" length="22.00" width="3.75" shape="-1.88,251.00 -1.88,229.00">
            <param key="origId" value="223_-1"/>
            <param key="signalID" value="9384 9392 9385 9393"/>
        </lane>
    </edge>
    <edge id=":148_1" function="internal">
        <lane id=":148_1_0" index="0" disallow="pedestrian tram rail_urban rail rail_electric rail_fast ship container cable_car subway aircraft wheelchair scooter drone" speed="9.61" length="5.91" width="3.75" shape="-1.88,251.00 -1.07,245.37 -0.96,245.18">
            <param key="origId" value="220_-1"/>
            <param key="signalID" value="9384 9392 9385 9393"/>
        </lane>
    </edge>
    <edge id=":148_6" function="internal">
        <lane id=":148_6_0" index="0" disallow="pedestrian tram rail_urban rail rail_electric rail_fast ship container cable_car subway aircraft wheelchair scooter drone" speed="9.61" length="14.86" width="3.75" shape="-0.96,245.18 1.34,241.34 5.37,238.93 11.00,238.12">
            <param key="origId" value="220_-1"/>
            <param key="signalID" value="9384 9392 9385 9393"/>
        </lane>
    </edge>
    <edge id=":148_2" function="internal">
        <lane id=":148_2_0" index="0" disallow="pedestrian tram rail_urban rail rail_electric rail_fast ship container cable_car subway aircraft wheelchair scooter drone" speed="8.18" length="14.72" width="3.75" shape="11.00,241.88 7.01,242.45 4.16,244.16 2.45,247.01 1.88,251.00">
            <param key="origId" value="218_-1"/>
            <param key="signalID" value="6350 6365 6351 6364"/>
        </lane>
    </edge>
    <edge id=":148_3" function="internal">
        <lane id=":148_3_0" index="0" disallow="pedestrian tram rail_urban rail rail_electric rail_fast ship container cable_car subway aircraft wheelchair scooter drone" speed="9.61" length="20.76" width="3.75" shape="11.00,241.88 5.37,241.07 1.34,238.66 -1.07,234.63 -1.88,229.00">
            <param key="origId" value="221_-1"/>
            <param key="signalID" value="6350 6365 6351 6364"/>
        </lane>
    </edge>
    <edge id=":148_4" function="internal">
        <lane id=":148_4_0" index="0" disallow="pedestrian tram rail_urban rail rail_electric rail_fast ship container cable_car subway aircraft wheelchair scooter drone" speed="8.18" length="14.72" width="3.75" shape="1.88,229.00 2.45,232.99 4.16,235.84 7.01,237.55 11.00,238.12">
            <param key="origId" value="219_-1"/>
            <param key="signalID" value="3317 3330 3331 3318"/>
        </lane>
    </edge>
    <edge id=":148_5" function="internal">
        <lane id=":148_5_0" index="0" disallow="pedestrian tram rail_urban rail rail_electric rail_fast ship container cable_car subway aircraft wheelchair scooter drone" speed="13.89" length="22.00" width="3.75" shape="1.88,229.00 1.88,251.00">
            <param key="origId" value="224_-1"/>
            <param key="signalID" value="3317 3330 3331 3318"/>
        </lane>
    </edge>
    <edge id=":150_0" function="internal">
        <lane id=":150_0_0" index="0" disallow="pedestrian tram rail_urban rail rail_electric rail_fast ship container cable_car subway aircraft wheelchair scooter drone" speed="8.18" length="14.72" width="3.75" shape="478.12,251.00 477.55,247.01 475.84,244.16 472.99,242.45 469.00,241.88">
            <param key="origId" value="232_-1"/>
            <param key="signalID" value="15440 15455 15441 15454"/>
        </lane>
    </edge>
    <edge id=":150_1" function="internal">
        <lane id=":150_1_0" index="0" disallow="pedestrian tram rail_urban rail rail_electric rail_fast ship container cable_car subway aircraft wheelchair scooter drone" speed="13.89" length="22.00" width="3.75" shape="478.12,251.00 478.12,229.00">
            <param key="origId" value="237_-1"/>
            <param key="signalID" value="15440 15455 15441 15454"/>
        </lane>
    </edge>
    <edge id=":150_2" function="internal">
        <lane id=":150_2_0" index="0" disallow="pedestrian tram rail_urban rail rail_electric rail_fast ship container cable_car subway aircraft wheelchair scooter drone" speed="9.61" length="5.91" width="3.75" shape="478.12,251.00 478.93,245.37 479.04,245.18">
            <param key="origId" value="244_-1"/>
            <param key="signalID" value="15440 15455 15441 15454"/>
        </lane>
    </edge>
    <edge id=":150_12" function="internal">
        <lane id=":150_12_0" index="0" disallow="pedestrian tram rail_urban rail rail_electric rail_fast ship container cable_car subway aircraft wheelchair scooter drone" speed="9.61" length="14.86" width="3.75" shape="479.04,245.18 481.34,241.34 485.37,238.93 491.00,238.12">
            <param key="origId" value="244_-1"/>
            <param key="signalID" value="15440 15455 15441 15454"/>
        </lane>
    </edge>
    <edge id=":150_3" function="internal">
        <lane id=":150_3_0" index="0" disallow="pedestrian tram rail_urban rail rail_electric rail_fast ship container cable_car subway aircraft wheelchair scooter drone" speed="8.18" length="14.72" width="3.75" shape="491.00,241.88 487.01,242.45 484.16,244.16 482.45,247.01 481.88,251.00">
            <param key="origId" value="238_-1"/>
            <param key="signalID" value="12407 12420 12408 12421"/>
        </lane>
    </edge>
    <edge id=":150_4" function="internal">
        <lane id=":150_4_0" index="0" disallow="pedestrian tram rail_urban rail rail_electric rail_fast ship container cable_car subway aircraft wheelchair scooter drone" speed="13.89" length="22.00" width="3.75" shape="491.00,241.88 469.00,241.88">
            <param key="origId" value="240_-1"/>
            <param key="signalID" value="12407 12420 12408 12421"/>
        </lane>
    </edge>
    <edge id=":150_5" function="internal">
        <lane id=":150_5_0" index="0" disallow="pedestrian tram rail_urban rail rail_electric rail_fast ship container cable_car subway aircraft wheelchair scooter drone" speed="9.61" length="5.91" width="3.75" shape="491.00,241.88 485.37,241.07 485.18,240.96">
            <param key="origId" value="243_-1"/>
            <param key="signalID" value="12407 12420 12408 12421"/>
        </lane>
    </edge>
    <edge id=":150_13" function="internal">
        <lane id=":150_13_0" index="0" disallow="pedestrian tram rail_urban rail rail_electric rail_fast ship container cable_car subway aircraft wheelchair scooter drone" speed="9.61" length="14.86" width="3.75" shape="485.18,240.96 481.34,238.66 478.93,234.63 478.12,229.00">
            <param key="origId" value="243_-1"/>
            <param key="signalID" value="12407 12420 12408 12421"/>
        </lane>
    </edge>
    <edge id=":150_6" function="internal">
        <lane id=":150_6_0" index="0" disallow="pedestrian tram rail_urban rail rail_electric rail_fast ship container cable_car subway aircraft wheelchair scooter drone" speed="8.18" length="14.72" width="3.75" shape="481.88,229.00 482.45,232.99 484.16,235.84 487.01,237.55 491.00,238.12">
            <param key="origId" value="239_-1"/>
            <param key="signalID" value="21496 21517 21495 21518"/>
        </lane>
    </edge>
    <edge id=":150_7" function="internal">
        <lane id=":150_7_0" index="0" disallow="pedestrian tram rail_urban rail rail_electric rail_fast ship container cable_car subway aircraft wheelchair scooter drone" speed="13.89" length="22.00" width="3.75" shape="481.88,229.00 481.88,251.00">
            <param key="origId" value="236_-1"/>
            <param key="signalID" value="21496 21517 21495 21518"/>
        </lane>
    </edge>
    <edge id=":150_8" function="internal">
        <lane id=":150_8_0" index="0" disallow="pedestrian tram rail_urban rail rail_electric rail_fast ship container cable_car subway aircraft wheelchair scooter drone" speed="9.61" length="5.91" width="3.75" shape="481.88,229.00 481.07,234.63 480.96,234.82">
            <param key="origId" value="233_-1"/>
            <param key="signalID" value="21496 21517 21495 21518"/>
        </lane>
    </edge>
    <edge id=":150_14" function="internal">
        <lane id=":150_14_0" index="0" disallow="pedestrian tram rail_urban rail rail_electric rail_fast ship container cable_car subway aircraft wheelchair scooter drone" speed="9.61" length="14.86" width="3.75" shape="480.96,234.82 478.66,238.66 474.63,241.07 469.00,241.88">
            <param key="origId" value="233_-1"/>
            <param key="signalID" value="21496 21517 21495 21518"/>
        </lane>
    </edge>
    <edge id=":150_9" function="internal">
        <lane id=":150_9_0" index="0" disallow="pedestrian tram rail_urban rail rail_electric rail_fast ship container cable_car subway aircraft wheelchair scooter drone" speed="8.18" length="14.72" width="3.75" shape="469.00,238.12 472.99,237.55 475.84,235.84 477.55,232.99 478.12,229.00">
            <param key="origId" value="231_-1"/>
            <param key="signalID" value="18474 18482 18475 18483"/>
        </lane>
    </edge>
    <edge id=":150_10" function="internal">
        <lane id=":150_10_0" index="0" disallow="pedestrian tram rail_urban rail rail_electric rail_fast ship container cable_car subway aircraft wheelchair scooter drone" speed="13.89" length="22.00" width="3.75" shape="469.00,238.12 491.00,238.12">
            <param key="origId" value="241_-1"/>
            <param key="signalID" value="18474 18482 18475 18483"/>
        </lane>
    </edge>
    <edge id=":150_11" function="internal">
        <lane id=":150_11_0" index="0" disallow="pedestrian tram rail_urban rail rail_electric rail_fast ship container cable_car subway aircraft wheelchair scooter drone" speed="9.61" length="5.91" width="3.75" shape="469.00,238.12 474.63,238.93 474.82,239.04">
            <param key="origId" value="234_-1"/>
            <param key="signalID" value="18474 18482 18475 18483"/>
        </lane>
    </edge>
    <edge id=":150_15" function="internal">
        <lane id=":150_15_0" index="0" disallow="pedestrian tram rail_urban rail rail_electric rail_fast ship container cable_car subway aircraft wheelchair scooter drone" speed="9.61" length="14.86" width="3.75" shape="474.82,239.04 478.66,241.34 481.07,245.37 481.88,251.00">
            <param key="origId" value="234_-1"/>
            <param key="signalID" value="18474 18482 18475 18483"/>
        </lane>
    </edge>
    <edge id=":152_0" function="internal">
        <lane id=":152_0_0" index="0" disallow="pedestrian tram rail_urban rail rail_electric rail_fast ship container cable_car subway aircraft wheelchair scooter drone" speed="13.89" length="22.00" width="3.75" shape="251.00,481.88 229.00,481.88">
            <param key="origId" value="262_-1"/>
            <param key="signalID" value="30594 30602 30595 30603"/>
        </lane>
    </edge>
    <edge id=":152_1" function="internal">
        <lane id=":152_1_0" index="0" disallow="pedestrian tram rail_urban rail rail_electric rail_fast ship container cable_car subway aircraft wheelchair scooter drone" speed="9.61" length="5.91" width="3.75" shape="251.00,481.88 245.37,481.07 245.18,480.96">
            <param key="origId" value="259_-1"/>
            <param key="signalID" value="30594 30602 30595 30603"/>
        </lane>
    </edge>
    <edge id=":152_6" function="internal">
        <lane id=":152_6_0" index="0" disallow="pedestrian tram rail_urban rail rail_electric rail_fast ship container cable_car subway aircraft wheelchair scooter drone" speed="9.61" length="14.86" width="3.75" shape="245.18,480.96 241.34,478.66 238.93,474.63 238.12,469.00">
            <param key="origId" value="259_-1"/>
            <param key="signalID" value="30594 30602 30595 30603"/>
        </lane>
    </edge>
    <edge id=":152_2" function="internal">
        <lane id=":152_2_0" index="0" disallow="pedestrian tram rail_urban rail rail_electric rail_fast ship container cable_car subway aircraft wheelchair scooter drone" speed="8.18" length="14.72" width="3.75" shape="241.88,469.00 242.45,472.99 244.16,475.84 247.01,477.55 251.00,478.12">
            <param key="origId" value="257_-1"/>
            <param key="signalID" value="27560 27575 27561 27574"/>
        </lane>
    </edge>
    <edge id=":152_3" function="internal">
        <lane id=":152_3_0" index="0" disallow="pedestrian tram rail_urban rail rail_electric rail_fast ship container cable_car subway aircraft wheelchair scooter drone" speed="9.61" length="20.76" width="3.75" shape="241.88,469.00 241.07,474.63 238.66,478.66 234.63,481.07 229.00,481.88">
            <param key="origId" value="260_-1"/>
            <param key="signalID" value="27560 27575 27561 27574"/>
        </lane>
    </edge>
    <edge id=":152_4" function="internal">
        <lane id=":152_4_0" index="0" disallow="pedestrian tram rail_urban rail rail_electric rail_fast ship container cable_car subway aircraft wheelchair scooter drone" speed="8.18" length="14.72" width="3.75" shape="229.00,478.12 232.99,477.55 235.84,475.84 237.55,472.99 238.12,469.00">
            <param key="origId" value="258_-1"/>
            <param key="signalID" value="24527 24540 24541 24528"/>
        </lane>
    </edge>
    <edge id=":152_5" function="internal">
        <lane id=":152_5_0" index="0" disallow="pedestrian tram rail_urban rail rail_electric rail_fast ship container cable_car subway aircraft wheelchair scooter drone" speed="13.89" length="22.00" width="3.75" shape="229.00,478.12 251.00,478.12">
            <param key="origId" value="263_-1"/>
            <param key="signalID" value="24527 24540 24541 24528"/>
        </lane>
    </edge>
    <edge id=":154_0" function="internal">
        <lane id=":154_0_0" index="0" disallow="pedestrian tram rail_urban rail rail_electric rail_fast ship container cable_car subway aircraft wheelchair scooter drone" speed="8.18" length="14.72" width="3.75" shape="238.12,11.00 237.55,7.01 235.84,4.16 232.99,2.45 229.00,1.88">
            <param key="origId" value="271_-1"/>
            <param key="signalID" value="36650 36665 36651 36664"/>
        </lane>
    </edge>
    <edge id=":154_1" function="internal">
        <lane id=":154_1_0" index="0" disallow="pedestrian tram rail_urban rail rail_electric rail_fast ship container cable_car subway aircraft wheelchair scooter drone" speed="9.61" length="20.76" width="3.75" shape="238.12,11.00 238.93,5.37 241.34,1.34 245.37,-1.07 251.00,-1.88">
            <param key="origId" value="274_-1"/>
            <param key="signalID" value="36650 36665 36651 36664"/>
        </lane>
    </edge>
    <edge id=":154_2" function="internal">
        <lane id=":154_2_0" index="0" disallow="pedestrian tram rail_urban rail rail_electric rail_fast ship container cable_car subway aircraft wheelchair scooter drone" speed="8.18" length="14.72" width="3.75" shape="251.00,1.88 247.01,2.45 244.16,4.16 242.45,7.01 241.88,11.00">
            <param key="origId" value="272_-1"/>
            <param key="signalID" value="33617 33630 33631 33618"/>
        </lane>
    </edge>
    <edge id=":154_3" function="internal">
        <lane id=":154_3_0" index="0" disallow="pedestrian tram rail_urban rail rail_electric rail_fast ship container cable_car subway aircraft wheelchair scooter drone" speed="13.89" length="22.00" width="3.75" shape="251.00,1.88 229.00,1.88">
            <param key="origId" value="277_-1"/>
            <param key="signalID" value="33617 33630 33631 33618"/>
        </lane>
    </edge>
    <edge id=":154_4" function="internal">
        <lane id=":154_4_0" index="0" disallow="pedestrian tram rail_urban rail rail_electric rail_fast ship container cable_car subway aircraft wheelchair scooter drone" speed="13.89" length="22.00" width="3.75" shape="229.00,-1.88 251.00,-1.88">
            <param key="origId" value="276_-1"/>
            <param key="signalID" value="39684 39692 39685 39693"/>
        </lane>
    </edge>
    <edge id=":154_5" function="internal">
        <lane id=":154_5_0" index="0" disallow="pedestrian tram rail_urban rail rail_electric rail_fast ship container cable_car subway aircraft wheelchair scooter drone" speed="9.61" length="5.91" width="3.75" shape="229.00,-1.88 234.63,-1.07 234.82,-0.96">
            <param key="origId" value="273_-1"/>
            <param key="signalID" value="39684 39692 39685 39693"/>
        </lane>
    </edge>
    <edge id=":154_6" function="internal">
        <lane id=":154_6_0" index="0" disallow="pedestrian tram rail_urban rail rail_electric rail_fast ship container cable_car subway aircraft wheelchair scooter drone" speed="9.61" length="14.86" width="3.75" shape="234.82,-0.96 238.66,1.34 241.07,5.37 241.88,11.00">
            <param key="origId" value="273_-1"/>
            <param key="signalID" value="39684 39692 39685 39693"/>
        </lane>
    </edge>
    <edge id=":202#1_0" function="internal">
        <lane id=":202#1_0_0" index="0" disallow="pedestrian tram rail_urban rail rail_electric rail_fast ship container cable_car subway aircraft wheelchair scooter drone" speed="13.89" length="3.00" width="3.75" shape="183.74,241.88 180.74,241.88"/>
    </edge>
    <edge id=":202#1_1" function="internal">
        <lane id=":202#1_1_0" index="0" disallow="pedestrian tram rail_urban rail rail_electric rail_fast ship container cable_car subway aircraft wheelchair scooter drone" speed="13.89" length="3.40" width="3.75" shape="180.74,236.36 183.74,234.38">
            <param key="signalID" value="302 294 295 303"/>
        </lane>
        <lane id=":202#1_1_1" index="1" allow="emergency authority" speed="13.89" length="3.40" width="3.75" shape="180.74,239.12 181.65,238.96 182.24,238.62 182.83,238.28 183.74,238.12">
            <param key="signalID" value="302 294 295 303"/>
        </lane>
    </edge>
    <edge id=":209#1_0" function="internal">
        <lane id=":209#1_0_0" index="0" disallow="pedestrian tram rail_urban rail rail_electric rail_fast ship container cable_car subway aircraft wheelchair scooter drone" speed="13.89" length="3.00" width="3.75" shape="299.26,241.88 296.26,241.88">
            <param key="signalID" value="287 300 301 288"/>
        </lane>
    </edge>
    <edge id=":209#1_1" function="internal">
        <lane id=":209#1_1_0" index="0" allow="emergency authority" speed="13.89" length="3.11" width="1.76" shape="296.26,234.38 297.17,234.53 297.76,234.87 298.35,235.21 299.26,235.37"/>
        <lane id=":209#1_1_1" index="1" disallow="pedestrian tram rail_urban rail rail_electric rail_fast ship container cable_car subway aircraft wheelchair scooter drone" speed="13.89" length="3.11" width="3.75" shape="296.26,238.12 299.26,238.12"/>
    </edge>
    <edge id=":222.202_0" function="internal">
        <lane id=":222.202_0_0" index="0" disallow="pedestrian tram rail_urban rail rail_electric rail_fast ship container cable_car subway aircraft wheelchair scooter drone" speed="13.89" length="8.00" width="3.75" shape="124.00,241.88 116.00,241.88">
            <param key="signalID" value="0"/>
        </lane>
    </edge>
    <edge id=":222.202_1" function="internal">
        <lane id=":222.202_1_0" index="0" disallow="pedestrian tram rail_urban rail rail_electric rail_fast ship container cable_car subway aircraft wheelchair scooter drone" speed="13.89" length="8.25" width="3.75" shape="116.00,238.12 118.40,237.85 120.00,237.24 121.60,236.64 124.00,236.36">
            <param key="signalID" value="6349"/>
        </lane>
    </edge>
    <edge id=":235.209_0" function="internal">
        <lane id=":235.209_0_0" index="0" disallow="pedestrian tram rail_urban rail rail_electric rail_fast ship container cable_car subway aircraft wheelchair scooter drone" speed="13.89" length="8.00" width="3.75" shape="364.00,241.88 356.00,241.88">
            <param key="signalID" value="18478"/>
        </lane>
    </edge>
    <edge id=":235.209_1" function="internal">
        <lane id=":235.209_1_0" index="0" disallow="pedestrian tram rail_urban rail rail_electric rail_fast ship container cable_car subway aircraft wheelchair scooter drone" speed="13.89" length="8.00" width="3.75" shape="356.00,238.12 364.00,238.12">
            <param key="signalID" value="0"/>
        </lane>
    </edge>
    <edge id=":242.end_0" function="internal">
        <lane id=":242.end_0_0" index="0" disallow="pedestrian tram rail_urban rail rail_electric rail_fast ship container cable_car subway aircraft wheelchair scooter drone" speed="3.95" length="5.48" width="3.75" shape="600.00,238.12 601.41,239.06 601.88,240.00 601.41,240.94 600.00,241.88"/>
    </edge>
    <edge id=":261.196_0" function="internal">
        <lane id=":261.196_0_0" index="0" disallow="pedestrian tram rail_urban rail rail_electric rail_fast ship container cable_car subway aircraft wheelchair scooter drone" speed="13.89" length="0.10" width="3.75" shape="238.12,360.00 238.12,360.00">
            <param key="signalID" value="27559"/>
        </lane>
    </edge>
    <edge id=":261.196_1" function="internal">
        <lane id=":261.196_1_0" index="0" disallow="pedestrian tram rail_urban rail rail_electric rail_fast ship container cable_car subway aircraft wheelchair scooter drone" speed="13.89" length="0.10" width="3.75" shape="241.88,360.00 241.88,360.00">
            <param key="signalID" value="289"/>
        </lane>
    </edge>
    <edge id=":267.217_0" function="internal">
        <lane id=":267.217_0_0" index="0" disallow="pedestrian tram rail_urban rail rail_electric rail_fast ship container cable_car subway aircraft wheelchair scooter drone" speed="13.89" length="0.10" width="3.75" shape="-1.88,360.00 -1.88,360.00"/>
    </edge>
    <edge id=":267.217_1" function="internal">
        <lane id=":267.217_1_0" index="0" disallow="pedestrian tram rail_urban rail rail_electric rail_fast ship container cable_car subway aircraft wheelchair scooter drone" speed="13.89" length="0.10" width="3.75" shape="1.88,360.00 1.88,360.00">
            <param key="signalID" value="9388"/>