<?xml version="1.0" encoding="UTF-8"?>

<!-- generated on 2026-06-11T11:11:42.185350+01:00 by Eclipse SUMO netconvert 1.27.0
<netconvertConfiguration xmlns:xsi="http://www.w3.org/2001/XMLSchema-instance" xsi:noNamespaceSchemaLocation="http://sumo.dlr.de/xsd/netconvertConfiguration.xsd">

    <input>
        <opendrive-files value="straight_500m.xodr"/>
    </input>

    <output>
        <output-file value="../straight_500m.net.xml"/>
        <output.original-names value="true"/>
    </output>

    <processing>
        <offset.disable-normalization value="true"/>
        <opposites.guess value="true"/>
        <opposites.guess.fix-lengths value="true"/>
    </processing>

    <edge_removal>
        <keep-edges.by-vclass value="passenger"/>
    </edge_removal>

    <junctions>
        <no-turnarounds.except-deadend value="true"/>
    </junctions>

    <report>
        <ignore-errors value="true"/>
    </report>

</netconvertConfiguration>
-->

<net version="1.20" junctionCornerDetail="5" rectangularLaneCut="true" limitTurnSpeed="5.50" xmlns:xsi="http://www.w3.org/2001/XMLSchema-instance" xsi:noNamespaceSchemaLocation="http://sumo.dlr.de/xsd/net_file.xsd">

    <location netOffset="0.00,0.00" convBoundary="0.00,0.00,500.00,0.00" origBoundary="0.000000,0.000000,0.000000,0.000000" projParameter="+proj=utm +lat_0=37.35429341239328 +lon_0=-122.0859797650754 +k_0=1 +x_0=0 +y_0=0 +datum=WGS84 +geoidgrids=egm96_15.gtx +vunits=m +zone=32 +ellps=GRS80 +units=m +no_defs        "/>

    <type id="driving" priority="1" speed="13.89" disallow="pedestrian tram rail_urban rail rail_electric rail_fast ship container cable_car subway aircraft wheelchair scooter drone" width="3.65"/>

    <edge id=":1.begin_0" function="internal">
        <lane id=":1.begin_0_0" index="0" disallow="pedestrian tram rail_urban rail rail_electric rail_fast ship container cable_car subway aircraft wheelchair scooter drone" speed="3.58" length="4.48" width="3.07" shape="0.00,1.53 -1.15,0.77 -1.53,0.00 -1.15,-0.77 0.00,-1.53"/>
    </edge>
    <edge id=":1.end_0" function="internal">
        <lane id=":1.end_0_0" index="0" disallow="pedestrian tram rail_urban rail rail_electric rail_fast ship container cable_car subway aircraft wheelchair scooter drone" speed="3.58" length="4.48" width="3.07" shape="500.00,-1.53 501.15,-0.77 501.53,0.00 501.15,0.77 500.00,1.53"/>
    </edge>

    <edge id="-1" from="1.begin" to="1.end" priority="1" type="driving">
        <lane id="-1_0" index="0" disallow="pedestrian tram rail_urban rail rail_electric rail_fast ship container cable_car subway aircraft wheelchair scooter drone" speed="13.89" length="500.00" width="3.07" shape="0.00,-1.53 500.00,-1.53" type="driving">
            <neigh lane="1_0"/>
            <param key="origId" value="1_-1"/>
        </lane>
    </edge>
    <edge id="1" from="1.end" to="1.begin" priority="1" type="driving">
        <lane id="1_0" index="0" disallow="pedestrian tram rail_urban rail rail_electric rail_fast ship container cable_car subway aircraft wheelchair scooter drone" speed="13.89" length="500.00" width="3.07" shape="500.00,1.53 0.00,1.53" type="driving">
            <neigh lane="-1_0"/>
            <param key="origId" value="1_1"/>
        </lane>
    </edge>

    <junction id="1.begin" type="priority" x="0.00" y="0.00" incLanes="1_0" intLanes=":1.begin_0_0" shape="0.00,0.00 0.00,3.07 0.00,0.00">
        <request index="0" response="0" foes="0" cont="0"/>
    </junction>
    <junction id="1.end" type="priority" x="500.00" y="0.00" incLanes="-1_0" intLanes=":1.end_0_0" shape="500.00,0.00 500.00,-3.07 500.00,0.00">
        <request index="0" response="0" foes="0" cont="0"/>
    </junction>

    <connection from="-1" to="1" fromLane="0" toLane="0" via=":1.end_0_0" dir="t" state="M"/>
    <connection from="1" to="-1" fromLane="0" toLane="0" via=":1.begin_0_0" dir="t" state="M"/>

    <connection from=":1.begin_0" to="-1" fromLane="0" toLane="0" dir="t" state="M"/>
    <connection from=":1.end_0" to="1" fromLane="0" toLane="0" dir="t" state="M"/>

</net>
