<?xml version="1.0" encoding="UTF-8"?>

<!-- generated on 2026-06-26T14:33:13.968285+01:00 by Eclipse SUMO netconvert 1.27.0
<netconvertConfiguration xmlns:xsi="http://www.w3.org/2001/XMLSchema-instance" xsi:noNamespaceSchemaLocation="http://sumo.dlr.de/xsd/netconvertConfiguration.xsd">

    <input>
        <opendrive-files value="tunnels.xodr"/>
    </input>

    <output>
        <output-file value="../netconvert_nets/tunnels.net.xml"/>
        <output.original-names value="true"/>
    </output>

    <junctions>
        <no-turnarounds.except-deadend value="true"/>
    </junctions>

</netconvertConfiguration>
-->

<net version="1.20" junctionCornerDetail="5" rectangularLaneCut="true" limitTurnSpeed="5.50" xmlns:xsi="http://www.w3.org/2001/XMLSchema-instance" xsi:noNamespaceSchemaLocation="http://sumo.dlr.de/xsd/net_file.xsd">

    <location netOffset="0.00,50.00" convBoundary="0.00,0.00,466.71,270.01" origBoundary="0.00,-50.00,466.71,220.01" projParameter="!"/>

    <type id="driving" priority="1" speed="13.89" disallow="pedestrian tram rail_urban rail rail_electric rail_fast ship container cable_car subway aircraft wheelchair scooter drone" width="3.65"/>

    <edge id=":1#1_0" function="internal">
        <lane id=":1#1_0_0" index="0" disallow="pedestrian tram rail_urban rail rail_electric rail_fast ship container cable_car subway aircraft wheelchair scooter drone" speed="13.89" length="3.02" width="3.00" shape="128.98,109.45,11.59 128.09,106.57,11.47"/>
    </edge>
    <edge id=":1#1_1" function="internal">
        <lane id=":1#1_1_0" index="0" allow="emergency authority" speed="13.89" length="3.07" width="3.50" shape="133.25,104.99,11.47 133.64,105.81,11.50 134.09,106.29,11.53 134.55,106.77,11.55 134.94,107.59,11.59"/>
        <lane id=":1#1_1_1" index="1" disallow="pedestrian tram rail_urban rail rail_electric rail_fast ship container cable_car subway aircraft wheelchair scooter drone" speed="13.89" length="3.07" width="3.00" shape="130.95,105.69,11.47 131.84,108.56,11.59"/>
    </edge>
    <edge id=":1.begin_0" function="internal">
        <lane id=":1.begin_0_0" index="0" disallow="pedestrian tram rail_urban rail rail_electric rail_fast ship container cable_car subway aircraft wheelchair scooter drone" speed="3.53" length="4.38" width="3.00" shape="0.00,51.50 -1.12,50.75 -1.50,50.00 -1.12,49.25 0.00,48.50"/>
    </edge>
    <edge id=":1.end_0" function="internal">
        <lane id=":1.end_0_0" index="0" disallow="pedestrian tram rail_urban rail rail_electric rail_fast ship container cable_car subway aircraft wheelchair scooter drone" speed="3.53" length="4.38" width="3.00" shape="466.71,268.51 467.83,269.26 468.21,270.01 467.83,270.76 466.71,271.51"/>
    </edge>
    <edge id=":2.begin_0" function="internal">
        <lane id=":2.begin_0_0" index="0" disallow="pedestrian tram rail_urban rail rail_electric rail_fast ship container cable_car subway aircraft wheelchair scooter drone" speed="3.53" length="4.38" width="3.00" shape="300.00,1.50 298.88,0.75 298.50,-0.00 298.88,-0.75 300.00,-1.50"/>
    </edge>
    <edge id=":2.end_0" function="internal">
        <lane id=":2.end_0_0" index="0" disallow="pedestrian tram rail_urban rail rail_electric rail_fast ship container cable_car subway aircraft wheelchair scooter drone" speed="3.53" length="4.38" width="3.00" shape="411.58,172.27 410.43,172.99 409.60,173.01 409.07,172.36 408.86,171.03"/>
    </edge>

    <edge id="-1#0" from="1.begin" to="1#1" priority="1" type="driving" shape="0.00,50.00 2.00,50.00,0.01 4.00,50.00,0.05 6.00,50.00,0.12 8.00,50.00,0.21 10.00,50.00,0.33 12.00,50.00,0.46 14.00,50.00,0.62 16.00,50.00,0.80 18.00,50.00,0.99 20.00,50.00,1.20 22.00,50.00,1.43 24.00,50.00,1.68 26.00,50.00,1.93 28.00,50.00,2.20 30.00,50.00,2.48 32.00,50.00,2.77 34.00,50.00,3.07 36.00,50.00,3.37 38.00,50.00,3.68 40.00,50.00,4.00 42.00,50.00,4.32 50.00,50.00,5.62 52.00,50.00,5.94 54.00,50.00,6.25 56.00,50.01,6.56 58.00,50.03,6.87 60.00,50.07,7.17 62.00,50.12,7.46 64.00,50.18,7.74 66.00,50.27,8.01 67.99,50.39,8.27 69.99,50.53,8.51 71.98,50.71,8.74 73.97,50.92,8.95 75.95,51.17,9.15 77.93,51.46,9.33 79.90,51.80,9.50 81.87,52.18,9.65 83.82,52.61,9.80 85.76,53.10,9.92 87.68,53.64,10.04 89.59,54.24,10.15 91.48,54.90,10.24 93.34,55.62,10.33 95.18,56.41,10.40 96.99,57.26,10.47 98.76,58.19,10.53 100.50,59.18,10.58 102.19,60.24,10.62 103.84,61.37,10.66 105.45,62.57,10.69 107.00,63.82,10.72 108.51,65.14,10.74 109.96,66.52,10.76 111.35,67.95,10.77 112.69,69.44,10.79 113.96,70.98,10.80 115.17,72.58,10.81 116.32,74.21,10.82 117.41,75.89,10.83 118.45,77.60,10.84 119.43,79.34,10.85 120.36,81.11,10.86 121.24,82.91,10.88 122.08,84.72,10.89 122.87,86.56,10.92 123.62,88.41,10.94 124.34,90.28,10.98 125.03,92.15,11.01 125.70,94.04,11.06 126.34,95.94,11.11 126.96,97.84,11.16 127.56,99.75,11.22 128.15,101.65,11.29 128.74,103.57,11.36 129.32,105.48,11.44 129.96,107.57,11.53">
        <lane id="-1#0_0" index="0" allow="emergency authority" speed="13.89" length="162.78" width="1.80" shape="0.00,46.10 2.00,46.10,0.01 4.00,46.10,0.05 6.00,46.10,0.12 8.00,46.10,0.21 10.00,46.10,0.33 12.00,46.10,0.46 14.00,46.10,0.62 16.00,46.10,0.80 18.00,46.10,0.99 20.00,46.10,1.20 22.00,46.10,1.43 24.00,46.10,1.68 26.00,46.10,1.93 28.00,46.10,2.20 30.00,46.10,2.48 32.00,46.10,2.77 34.00,46.10,3.07 36.00,46.10,3.37 38.00,46.10,3.68 40.00,46.10,4.00 42.00,46.10,4.32 50.00,46.10,5.62 52.00,46.10,5.94 54.01,46.10,6.25 56.03,46.11,6.56 58.06,46.13,6.87 60.09,46.17,7.17 62.11,46.22,7.46 64.15,46.28,7.74 66.20,46.38,8.01 68.24,46.50,8.27 70.30,46.64,8.51 72.36,46.83,8.74 74.42,47.05,8.95 76.48,47.31,9.15 78.54,47.61,9.33 80.60,47.96,9.50 82.66,48.36,9.65 84.72,48.82,9.80 86.77,49.33,9.92 88.79,49.90,10.04 90.82,50.54,10.15 92.83,51.24,10.24 94.81,52.01,10.33 96.78,52.85,10.40 98.73,53.77,10.47 100.63,54.77,10.53 102.50,55.83,10.58 104.33,56.98,10.62 106.11,58.20,10.66 107.84,59.49,10.69 109.51,60.83,10.72 111.14,62.26,10.74 112.70,63.75,10.76 114.20,65.29,10.77 115.64,66.90,10.79 117.02,68.56,10.80 118.32,70.28,10.81 119.55,72.02,10.82 120.71,73.82,10.83 121.82,75.63,10.84 122.86,77.48,10.85 123.84,79.35,10.86 124.76,81.23,10.88 125.64,83.13,10.89 126.47,85.06,10.92 127.25,86.98,10.94 127.99,88.90,10.98 128.70,90.82,11.01 129.39,92.77,11.06 130.04,94.71,11.11 130.67,96.65,11.16 131.28,98.59,11.22 131.88,100.50,11.29 132.47,102.43,11.36 133.05,104.34,11.44 133.25,104.99,11.47" type="driving">
            <param key="origId" value="1_-2"/>
        </lane>
        <lane id="-1#0_1" index="1" disallow="pedestrian tram rail_urban rail rail_electric rail_fast ship container cable_car subway aircraft wheelchair scooter drone" speed="13.89" length="162.78" width="3.00" shape="0.00,48.50 2.00,48.50,0.01 4.00,48.50,0.05 6.00,48.50,0.12 8.00,48.50,0.21 10.00,48.50,0.33 12.00,48.50,0.46 14.00,48.50,0.62 16.00,48.50,0.80 18.00,48.50,0.99 20.00,48.50,1.20 22.00,48.50,1.43 24.00,48.50,1.68 26.00,48.50,1.93 28.00,48.50,2.20 30.00,48.50,2.48 32.00,48.50,2.77 34.00,48.50,3.07 36.00,48.50,3.37 38.00,48.50,3.68 40.00,48.50,4.00 42.00,48.50,4.32 50.00,48.50,5.62 52.00,48.50,5.94 54.00,48.50,6.25 56.01,48.51,6.56 58.02,48.53,6.87 60.03,48.57,7.17 62.04,48.62,7.46 64.06,48.68,7.74 66.08,48.77,8.01 68.09,48.89,8.27 70.11,49.03,8.51 72.13,49.22,8.74 74.14,49.43,8.95 76.15,49.68,9.15 78.17,49.98,9.33 80.17,50.32,9.50 82.17,50.71,9.65 84.17,51.15,9.80 86.15,51.65,9.92 88.11,52.20,10.04 90.06,52.82,10.15 92.00,53.49,10.24 93.91,54.23,10.33 95.79,55.04,10.40 97.66,55.92,10.47 99.48,56.87,10.53 101.27,57.89,10.58 103.01,58.99,10.62 104.71,60.15,10.66 106.37,61.38,10.69 107.96,62.67,10.72 109.52,64.03,10.74 111.02,65.45,10.76 112.45,66.93,10.77 113.83,68.46,10.79 115.14,70.05,10.80 116.38,71.70,10.81 117.56,73.37,10.82 118.68,75.09,10.83 119.74,76.84,10.84 120.75,78.62,10.85 121.70,80.43,10.86 122.59,82.26,10.88 123.45,84.11,10.89 124.25,85.98,10.92 125.02,87.86,10.94 125.74,89.75,10.98 126.44,91.64,11.01 127.12,93.55,11.06 127.76,95.47,11.11 128.39,97.38,11.16 128.99,99.30,11.22 129.58,101.21,11.29 130.17,103.13,11.36 130.75,105.04,11.44 130.95,105.69,11.47" type="driving">
            <param key="origId" value="1_-1"/>
        </lane>
    </edge>
    <edge id="-1#1" from="1#1" to="1.end" priority="1" type="driving" shape="129.96,107.57,11.53 130.50,109.30,11.60 131.10,111.21,11.69 131.71,113.12,11.78 132.34,115.01,11.87 132.99,116.91,11.97 133.66,118.79,12.07 134.37,120.66,12.16 135.10,122.52,12.26 135.88,124.36,12.36 136.69,126.19,12.46 137.55,128.00,12.56 138.45,129.78,12.66 139.41,131.54,12.76 140.42,133.27,12.86 141.48,134.96,12.95 142.60,136.62,13.04 143.78,138.23,13.13 144.39,139.02,13.18 145.67,140.56,13.26 147.00,142.05,13.35 148.40,143.48,13.43 149.85,144.86,13.50 151.35,146.18,13.57 152.91,147.44,13.63 154.51,148.63,13.69 156.16,149.76,13.75 157.85,150.82,13.80 159.59,151.82,13.84 161.36,152.74,13.87 163.17,153.60,13.90 165.01,154.39,13.92 166.87,155.11,13.93 168.76,155.77,13.93 170.67,156.37,13.93 172.60,156.91,13.92 174.54,157.39,13.91 176.49,157.83,13.89 178.45,158.21,13.86 180.42,158.54,13.83 182.40,158.83,13.79 184.39,159.08,13.74 186.37,159.29,13.69 188.37,159.47,13.63 190.36,159.61,13.57 192.36,159.73,13.50 194.36,159.82,13.43 196.36,159.89,13.35 198.35,159.94,13.27 200.35,159.97,13.18 202.35,159.99,13.08 204.35,160.00,12.99 206.35,160.00,12.88 208.35,160.00,12.78 210.35,160.00,12.67 212.35,160.00,12.55 214.35,160.00,12.44 216.35,160.00,12.31 218.35,160.00,12.19 220.35,160.00,12.06 222.35,160.00,11.93 224.35,160.00,11.79 226.35,160.00,11.65 228.35,160.00,11.51 230.35,160.00,11.37 232.35,160.00,11.22 234.35,160.00,11.07 236.35,160.00,10.92 240.35,160.00,10.62 248.35,160.00,10.00 252.35,160.00,9.69 254.35,160.00,9.54 256.35,160.00,9.39 258.35,160.00,9.24 260.35,160.00,9.10 262.35,160.01,8.96 264.35,160.02,8.82 266.35,160.04,8.69 268.35,160.07,8.56 270.35,160.12,8.44 272.35,160.19,8.33 274.35,160.28,8.22 276.35,160.39,8.11 278.34,160.54,8.02 280.33,160.71,7.93 282.32,160.92,7.84 284.31,161.17,7.77 286.29,161.46,7.71 288.26,161.80,7.65 290.22,162.18,7.60 292.17,162.61,7.57 294.11,163.10,7.54 296.04,163.64,7.52 297.95,164.24,7.52 299.83,164.90,7.53 301.70,165.62,7.55 303.54,166.41,7.58 305.35,167.27,7.62 307.12,168.19,7.68 308.85,169.18,7.75 310.55,170.25,7.83 312.20,171.37,7.92 313.80,172.57,8.02 315.36,173.83,8.13 316.86,175.15,8.25 318.31,176.52,8.38 319.70,177.96,8.51 321.04,179.45,8.64 322.31,180.99,8.78 323.53,182.58,8.92 324.68,184.21,9.07 325.77,185.89,9.22 326.80,187.60,9.36 327.78,189.34,9.51 328.71,191.11,9.66 329.59,192.91,9.80 330.43,194.73,9.95 331.22,196.56,10.08 331.98,198.42,10.22 332.70,200.28,10.35 333.39,202.16,10.47 334.05,204.05,10.58 334.69,205.94,10.69 335.31,207.84,10.79 335.91,209.75,10.88 336.51,211.66,10.95 337.09,213.57,11.02 337.68,215.48,11.07 338.26,217.40,11.11 338.85,219.31,11.14 339.45,221.22,11.15 340.06,223.12,11.14 340.69,225.02,11.12 341.34,226.91,11.08 342.02,228.79,11.02 342.72,230.66,10.95 343.46,232.52,10.85 344.23,234.37,10.74 345.05,236.19,10.62 345.90,238.00,10.48 346.81,239.78,10.33 347.76,241.54,10.16 348.77,243.27,9.98 349.83,244.96,9.79 350.95,246.62,9.59 352.14,248.23,9.37 352.75,249.02,9.26 354.02,250.56,9.04 355.36,252.05,8.80 356.75,253.49,8.56 358.20,254.87,8.31 359.70,256.18,8.06 361.26,257.44,7.80 362.86,258.64,7.54 364.51,259.77,7.27 366.21,260.83,7.00 367.94,261.82,6.73 369.72,262.75,6.46 371.53,263.60,6.18 373.36,264.39,5.91 375.23,265.11,5.64 377.12,265.77,5.37 379.02,266.37,5.10 380.95,266.91,4.83 382.89,267.40,4.57 384.84,267.83,4.32 386.81,268.21,4.07 388.78,268.55,3.82 390.76,268.84,3.59 392.74,269.09,3.36 394.73,269.30,3.14 396.72,269.47,2.93 398.72,269.62,2.73 400.71,269.73,2.54 402.71,269.82,2.35 404.71,269.89,2.18 406.71,269.94,2.01 408.71,269.97,1.86 410.71,269.99,1.71 412.71,270.00,1.56 414.71,270.01,1.43 416.71,270.01,1.30 418.71,270.01,1.18 420.71,270.01,1.07 422.71,270.01,0.96 424.71,270.01,0.86 426.71,270.01,0.77 428.71,270.01,0.68 430.71,270.01,0.60 432.71,270.01,0.53 434.71,270.01,0.46 436.71,270.01,0.40 438.71,270.01,0.34 440.71,270.01,0.29 442.71,270.01,0.24 444.71,270.01,0.20 446.71,270.01,0.16 448.71,270.01,0.13 450.71,270.01,0.10 452.71,270.01,0.07 454.71,270.01,0.05 456.71,270.01,0.04 458.71,270.01,0.02 460.71,270.01,0.01 462.71,270.01,0.01 464.71,270.01 466.71,270.01">
        <lane id="-1#1_0" index="0" disallow="pedestrian tram rail_urban rail rail_electric rail_fast ship container cable_car subway aircraft wheelchair scooter drone" speed="13.89" length="415.29" width="3.50" shape="134.94,107.59,11.59 135.03,107.88,11.60 135.63,109.78,11.69 136.23,111.65,11.78 136.84,113.49,11.87 137.47,115.34,11.97 138.12,117.15,12.07 138.80,118.95,12.16 139.50,120.73,12.26 140.24,122.47,12.36 141.01,124.21,12.46 141.82,125.91,12.56 142.65,127.57,12.66 143.55,129.21,12.76 144.48,130.81,12.86 145.46,132.37,12.95 146.49,133.89,13.04 147.59,135.39,13.13 148.08,136.03,13.18 149.27,137.46,13.26 150.47,138.81,13.35 151.73,140.10,13.43 153.06,141.36,13.50 154.41,142.55,13.57 155.82,143.69,13.63 157.27,144.76,13.69 158.76,145.79,13.75 160.30,146.75,13.80 161.87,147.65,13.84 163.47,148.49,13.87 165.13,149.27,13.90 166.80,149.99,13.92 168.51,150.65,13.93 170.25,151.26,13.93 172.02,151.82,13.93 173.81,152.32,13.92 175.63,152.77,13.91 177.46,153.18,13.89 179.29,153.54,13.86 181.16,153.85,13.83 183.04,154.12,13.79 184.94,154.36,13.74 186.83,154.56,13.69 188.75,154.74,13.63 190.67,154.87,13.57 192.61,154.99,13.50 194.55,155.07,13.43 196.50,155.14,13.35 198.45,155.19,13.27 200.41,155.22,13.18 202.39,155.24,13.08 204.36,155.25,12.99 206.35,155.25,12.88 208.35,155.25,12.78 210.35,155.25,12.67 212.35,155.25,12.55 214.35,155.25,12.44 216.35,155.25,12.31 218.35,155.25,12.19 220.35,155.25,12.06 222.35,155.25,11.93 224.35,155.25,11.79 226.35,155.25,11.65 228.35,155.25,11.51 230.35,155.25,11.37 232.35,155.25,11.22 234.35,155.25,11.07 236.35,155.25,10.92 240.35,155.25,10.62 248.35,155.25,10.00 252.35,155.25,9.69 254.35,155.25,9.54 256.35,155.25,9.39 258.35,155.25,9.24 260.36,155.25,9.10 262.37,155.26,8.96 264.39,155.27,8.82 266.41,155.29,8.69 268.44,155.32,8.56 270.49,155.37,8.44 272.54,155.44,8.33 274.59,155.54,8.22 276.66,155.65,8.11 278.72,155.81,8.02 280.78,155.98,7.93 282.87,156.20,7.84 284.95,156.46,7.77 287.04,156.77,7.71 289.12,157.13,7.65 291.18,157.53,7.60 293.26,157.99,7.57 295.33,158.51,7.54 297.39,159.09,7.52 299.45,159.73,7.52 301.47,160.44,7.53 303.49,161.22,7.55 305.50,162.08,7.58 307.46,163.02,7.62 309.40,164.02,7.68 311.30,165.11,7.75 313.15,166.27,7.83 314.96,167.50,7.92 316.72,168.82,8.02 318.42,170.20,8.13 320.06,171.64,8.25 321.65,173.14,8.38 323.18,174.72,8.51 324.64,176.35,8.64 326.03,178.03,8.78 327.36,179.76,8.92 328.61,181.55,9.07 329.80,183.37,9.22 330.90,185.21,9.36 331.95,187.07,9.51 332.95,188.96,9.66 333.88,190.87,9.80 334.77,192.79,9.95 335.60,194.72,10.08 336.39,196.66,10.22 337.14,198.60,10.35 337.86,200.56,10.47 338.54,202.51,10.58 339.20,204.44,10.69 339.83,206.39,10.79 340.44,208.33,10.88 341.05,210.26,10.95 341.63,212.18,11.02 342.22,214.09,11.07 342.80,216.01,11.11 343.39,217.90,11.14 343.98,219.78,11.15 344.58,221.65,11.14 345.19,223.50,11.12 345.82,225.33,11.08 346.48,227.15,11.02 347.15,228.95,10.95 347.86,230.73,10.85 348.59,232.48,10.74 349.37,234.20,10.62 350.17,235.91,10.48 351.01,237.57,10.33 351.90,239.21,10.16 352.83,240.81,9.98 353.81,242.37,9.79 354.83,243.88,9.59 355.94,245.38,9.37 356.45,246.04,9.26 357.62,247.46,9.04 358.84,248.81,8.80 360.10,250.12,8.56 361.40,251.36,8.31 362.75,252.54,8.06 364.18,253.69,7.80 365.63,254.78,7.54 367.11,255.79,7.27 368.65,256.75,7.00 370.22,257.65,6.73 371.83,258.49,6.46 373.48,259.27,6.18 375.15,259.99,5.91 376.87,260.65,5.64 378.62,261.26,5.37 380.38,261.82,5.10 382.17,262.32,4.83 383.98,262.78,4.57 385.80,263.18,4.32 387.66,263.54,4.07 389.53,263.86,3.82 391.40,264.13,3.59 393.29,264.37,3.36 395.18,264.57,3.14 397.10,264.74,2.93 399.03,264.88,2.73 400.95,264.99,2.54 402.90,265.07,2.35 404.85,265.14,2.18 406.80,265.19,2.01 408.77,265.22,1.86 410.75,265.24,1.71 412.73,265.25,1.56 414.72,265.26,1.43 416.71,265.26,1.30 418.71,265.26,1.18 420.71,265.26,1.07 422.71,265.26,0.96 424.71,265.26,0.86 426.71,265.26,0.77 428.71,265.26,0.68 430.71,265.26,0.60 432.71,265.26,0.53 434.71,265.26,0.46 436.71,265.26,0.40 438.71,265.26,0.34 440.71,265.26,0.29 442.71,265.26,0.24 444.71,265.26,0.20 446.71,265.26,0.16 448.71,265.26,0.13 450.71,265.26,0.10 452.71,265.26,0.07 454.71,265.26,0.05 456.71,265.26,0.04 458.71,265.26,0.02 460.71,265.26,0.01 462.71,265.26,0.01 464.71,265.26 466.71,265.26" type="driving">
            <param key="origId" value="1_-2"/>
        </lane>
        <lane id="-1#1_1" index="1" disallow="pedestrian tram rail_urban rail rail_electric rail_fast ship container cable_car subway aircraft wheelchair scooter drone" speed="13.89" length="415.29" width="3.00" shape="131.84,108.56,11.59 131.93,108.85,11.60 132.53,110.76,11.69 133.14,112.65,11.78 133.76,114.53,11.87 134.41,116.42,11.97 135.07,118.27,12.07 135.77,120.12,12.16 136.49,121.95,12.26 137.26,123.76,12.36 138.05,125.56,12.46 138.90,127.34,12.56 139.78,129.08,12.66 140.72,130.80,12.76 141.70,132.49,12.86 142.74,134.14,12.95 143.83,135.76,13.04 144.98,137.33,13.13 145.55,138.08,13.18 146.81,139.58,13.26 148.10,141.03,13.35 149.45,142.41,13.43 150.86,143.75,13.50 152.32,145.03,13.57 153.83,146.25,13.63 155.38,147.41,13.69 156.98,148.51,13.75 158.62,149.53,13.80 160.31,150.50,13.84 162.03,151.40,13.87 163.79,152.23,13.90 165.58,153.00,13.92 167.39,153.70,13.93 169.23,154.35,13.93 171.10,154.93,13.93 172.98,155.46,13.92 174.89,155.93,13.91 176.80,156.36,13.89 178.72,156.73,13.86 180.65,157.06,13.83 182.60,157.34,13.79 184.56,157.59,13.74 186.52,157.80,13.69 188.49,157.97,13.63 190.46,158.11,13.57 192.44,158.23,13.50 194.42,158.32,13.43 196.41,158.39,13.35 198.38,158.44,13.27 200.37,158.47,13.18 202.36,158.49,13.08 204.35,158.50,12.99 206.35,158.50,12.88 208.35,158.50,12.78 210.35,158.50,12.67 212.35,158.50,12.55 214.35,158.50,12.44 216.35,158.50,12.31 218.35,158.50,12.19 220.35,158.50,12.06 222.35,158.50,11.93 224.35,158.50,11.79 226.35,158.50,11.65 228.35,158.50,11.51 230.35,158.50,11.37 232.35,158.50,11.22 234.35,158.50,11.07 236.35,158.50,10.92 240.35,158.50,10.62 248.35,158.50,10.00 252.35,158.50,9.69 254.35,158.50,9.54 256.35,158.50,9.39 258.35,158.50,9.24 260.35,158.50,9.10 262.36,158.51,8.96 264.36,158.52,8.82 266.37,158.54,8.69 268.38,158.57,8.56 270.39,158.62,8.44 272.41,158.69,8.33 274.42,158.78,8.22 276.45,158.89,8.11 278.46,159.04,8.02 280.47,159.22,7.93 282.49,159.43,7.84 284.51,159.68,7.77 286.53,159.98,7.71 288.53,160.32,7.65 290.52,160.71,7.60 292.52,161.15,7.57 294.50,161.65,7.54 296.47,162.20,7.52 298.42,162.82,7.52 300.35,163.49,7.53 302.27,164.23,7.55 304.16,165.04,7.58 306.02,165.93,7.62 307.84,166.87,7.68 309.62,167.89,7.75 311.37,168.99,7.83 313.07,170.15,7.92 314.72,171.39,8.02 316.33,172.68,8.13 317.87,174.04,8.25 319.37,175.45,8.38 320.80,176.94,8.51 322.18,178.47,8.64 323.48,180.06,8.78 324.74,181.69,8.92 325.92,183.37,9.07 327.04,185.09,9.22 328.10,186.84,9.36 329.10,188.62,9.51 330.05,190.43,9.66 330.94,192.27,9.80 331.80,194.12,9.95 332.60,195.98,10.08 333.37,197.87,10.22 334.10,199.75,10.35 334.80,201.65,10.47 335.47,203.56,10.58 336.11,205.47,10.69 336.74,207.38,10.79 337.34,209.30,10.88 337.94,211.22,10.95 338.52,213.13,11.02 339.11,215.04,11.07 339.69,216.96,11.11 340.28,218.86,11.14 340.88,220.77,11.15 341.49,222.65,11.14 342.11,224.54,11.12 342.75,226.41,11.08 343.43,228.27,11.02 344.12,230.12,10.95 344.85,231.95,10.85 345.61,233.77,10.74 346.41,235.56,10.62 347.25,237.34,10.48 348.14,239.08,10.33 349.07,240.81,10.16 350.05,242.49,9.98 351.09,244.14,9.79 352.18,245.75,9.59 353.34,247.33,9.37 353.92,248.08,9.26 355.16,249.58,9.04 356.46,251.03,8.80 357.81,252.43,8.56 359.21,253.76,8.31 360.66,255.03,8.06 362.18,256.26,7.80 363.73,257.42,7.54 365.33,258.51,7.27 366.98,259.54,7.00 368.66,260.50,6.73 370.39,261.41,6.46 372.15,262.23,6.18 373.93,263.00,5.91 375.75,263.70,5.64 377.59,264.35,5.37 379.45,264.93,5.10 381.34,265.46,4.83 383.24,265.94,4.57 385.14,266.36,4.32 387.08,266.73,4.07 389.02,267.07,3.82 390.96,267.35,3.59 392.91,267.60,3.36 394.87,267.81,3.14 396.84,267.97,2.93 398.82,268.12,2.73 400.79,268.23,2.54 402.77,268.32,2.35 404.75,268.39,2.18 406.74,268.44,2.01 408.73,268.47,1.86 410.72,268.49,1.71 412.72,268.50,1.56 414.71,268.51,1.43 416.71,268.51,1.30 418.71,268.51,1.18 420.71,268.51,1.07 422.71,268.51,0.96 424.71,268.51,0.86 426.71,268.51,0.77 428.71,268.51,0.68 430.71,268.51,0.60 432.71,268.51,0.53 434.71,268.51,0.46 436.71,268.51,0.40 438.71,268.51,0.34 440.71,268.51,0.29 442.71,268.51,0.24 444.71,268.51,0.20 446.71,268.51,0.16 448.71,268.51,0.13 450.71,268.51,0.10 452.71,268.51,0.07 454.71,268.51,0.05 456.71,268.51,0.04 458.71,268.51,0.02 460.71,268.51,0.01 462.71,268.51,0.01 464.71,268.51 466.71,268.51" type="driving">
            <param key="origId" value="1_-1"/>
        </lane>
    </edge>
    <edge id="-2" from="2.begin" to="2.end" priority="1" type="driving" shape="300.00,0.00 352.00,0.00 354.00,0.00 356.00,0.01 358.00,0.02 360.00,0.03 362.00,0.06 364.00,0.09 366.00,0.14 368.00,0.19 370.00,0.27 371.99,0.35,0.02 373.99,0.46,0.09 375.99,0.59,0.21 377.98,0.73,0.36 379.98,0.90,0.56 381.97,1.09,0.79 383.95,1.31,1.07 385.94,1.55,1.37 387.92,1.83,1.71 389.90,2.13,2.08 391.87,2.46,2.48 393.84,2.83,2.90 395.79,3.23,3.35 397.75,3.67,3.83 399.69,4.15,4.32 401.62,4.66,4.83 403.54,5.22,5.36 405.45,5.81,5.91 407.35,6.45,6.47 409.23,7.13,7.04 411.09,7.86,7.62 412.93,8.63,8.21 414.76,9.45,8.80 416.56,10.32,9.40 418.34,11.24,10.00 420.09,12.20,10.60 421.81,13.22,11.20 423.50,14.29,11.79 425.16,15.41,12.38 426.78,16.57,12.96 428.37,17.79,13.53 429.91,19.07,14.09 431.41,20.39,14.64 432.87,21.76,15.17 434.27,23.18,15.68 435.62,24.66,16.17 436.92,26.18,16.65 438.16,27.75,17.10 439.34,29.37,17.52 440.45,31.03,17.92 441.50,32.73,18.29 442.48,34.47,18.63 443.39,36.25,18.93 444.23,38.07,19.20 445.01,39.91,19.44 445.72,41.78,19.64 446.36,43.67,19.79 446.94,45.59,19.91 447.46,47.52,19.98 447.91,49.47,20.00 448.29,51.43,19.98 448.62,53.40,19.91 448.89,55.39,19.79 449.09,57.38,19.64 449.24,59.37,19.44 449.34,61.37,19.21 449.38,63.37,18.93 449.36,65.37,18.63 449.30,67.37,18.29 449.18,69.36,17.92 449.02,71.36,17.52 448.81,73.35,17.10 448.56,75.33,16.65 448.27,77.31,16.18 447.93,79.28,15.68 447.55,81.24,15.17 447.14,83.20,14.64 446.69,85.15,14.09 446.21,87.09,13.53 445.69,89.02,12.96 445.14,90.95,12.38 444.57,92.86,11.79 443.96,94.77,11.20 443.33,96.67,10.60 442.68,98.56,10.00 442.00,100.44,9.40 441.31,102.31,8.80 440.59,104.18,8.21 439.85,106.04,7.62 439.10,107.89,7.04 438.34,109.74,6.47 437.56,111.58,5.91 436.77,113.42,5.37 435.96,115.25,4.83 435.15,117.08,4.32 434.34,118.91,3.83 433.51,120.73,3.35 432.69,122.55,2.90 431.86,124.37,2.48 431.02,126.19,2.08 430.19,128.01,1.71 429.36,129.82,1.37 428.53,131.64,1.07 427.69,133.46,0.80 426.86,135.28,0.56 426.03,137.10,0.36 425.20,138.92,0.21 424.37,140.74,0.09 423.53,142.55,0.02 422.70,144.37 410.22,171.65">
        <lane id="-2_0" index="0" disallow="pedestrian tram rail_urban rail rail_electric rail_fast ship container cable_car subway aircraft wheelchair scooter drone" speed="13.89" length="307.65" width="3.00" shape="300.00,-1.50 352.00,-1.50 354.00,-1.50 356.01,-1.49 358.01,-1.48 360.01,-1.47 362.02,-1.44 364.03,-1.41 366.04,-1.36 368.05,-1.31 370.06,-1.23 372.06,-1.15,0.02 374.08,-1.04,0.09 376.09,-0.91,0.21 378.10,-0.77,0.36 380.11,-0.59,0.56 382.12,-0.40,0.79 384.12,-0.18,1.07 386.13,0.06,1.37 388.14,0.35,1.71 390.14,0.65,2.08 392.13,0.98,2.48 394.13,1.36,2.90 396.11,1.76,3.35 398.09,2.21,3.83 400.06,2.70,4.32 402.02,3.21,4.83 403.97,3.78,5.36 405.91,4.38,5.91 407.84,5.03,6.47 409.76,5.73,7.04 411.65,6.47,7.62 413.53,7.25,8.21 415.39,8.09,8.80 417.23,8.98,9.40 419.05,9.92,10.00 420.83,10.90,10.60 422.59,11.94,11.20 424.32,13.03,11.79 426.02,14.18,12.38 427.67,15.37,12.96 429.31,16.62,13.53 430.88,17.93,14.09 432.42,19.28,14.64 433.92,20.69,15.17 435.36,22.15,15.68 436.74,23.67,16.17 438.08,25.23,16.65 439.36,26.84,17.10 440.57,28.51,17.52 441.71,30.22,17.92 442.79,31.97,18.29 443.80,33.76,18.63 444.74,35.59,18.93 445.60,37.46,19.20 446.40,39.35,19.44 447.13,41.27,19.64 447.79,43.21,19.79 448.38,45.18,19.91 448.92,47.16,19.98 449.38,49.16,20.00 449.77,51.16,19.98 450.10,53.18,19.91 450.38,55.21,19.79 450.58,57.25,19.64 450.74,59.28,19.44 450.84,61.32,19.21 450.88,63.36,18.93 450.86,65.40,18.63 450.80,67.44,18.29 450.68,69.47,17.92 450.51,71.50,17.52 450.30,73.52,17.10 450.05,75.53,16.65 449.75,77.55,16.18 449.41,79.55,15.68 449.02,81.54,15.17 448.60,83.52,14.64 448.15,85.50,14.09 447.66,87.47,13.53 447.14,89.42,12.96 446.58,91.37,12.38 446.00,93.30,11.79 445.39,95.23,11.20 444.75,97.15,10.60 444.09,99.06,10.00 443.41,100.95,9.40 442.71,102.84,8.80 441.99,104.73,8.21 441.24,106.60,7.62 440.49,108.46,7.04 439.72,110.32,6.47 438.94,112.17,5.91 438.15,114.02,5.37 437.33,115.86,4.83 436.52,117.69,4.32 435.71,119.52,3.83 434.88,121.35,3.35 434.06,123.17,2.90 433.22,125.00,2.48 432.38,126.82,2.08 431.55,128.63,1.71 430.72,130.44,1.37 429.89,132.27,1.07 429.05,134.09,0.80 428.22,135.90,0.56 427.39,137.72,0.36 426.56,139.54,0.21 425.73,141.37,0.09 424.89,143.18,0.02 424.06,144.99 411.58,172.27" type="driving">
            <param key="origId" value="2_-1"/>
        </lane>
    </edge>
    <edge id="1#0" from="1#1" to="1.begin" priority="1" type="driving" shape="129.96,107.57,11.53 129.32,105.48,11.44 128.74,103.57,11.36 128.15,101.65,11.29 127.56,99.75,11.22 126.96,97.84,11.16 126.34,95.94,11.11 125.70,94.04,11.06 125.03,92.15,11.01 124.34,90.28,10.98 123.62,88.41,10.94 122.87,86.56,10.92 122.08,84.72,10.89 121.24,82.91,10.88 120.36,81.11,10.86 119.43,79.34,10.85 118.45,77.60,10.84 117.41,75.89,10.83 116.32,74.21,10.82 115.17,72.58,10.81 113.96,70.98,10.80 112.69,69.44,10.79 111.35,67.95,10.77 109.96,66.52,10.76 108.51,65.14,10.74 107.00,63.82,10.72 105.45,62.57,10.69 103.84,61.37,10.66 102.19,60.24,10.62 100.50,59.18,10.58 98.76,58.19,10.53 96.99,57.26,10.47 95.18,56.41,10.40 93.34,55.62,10.33 91.48,54.90,10.24 89.59,54.24,10.15 87.68,53.64,10.04 85.76,53.10,9.92 83.82,52.61,9.80 81.87,52.18,9.65 79.90,51.80,9.50 77.93,51.46,9.33 75.95,51.17,9.15 73.97,50.92,8.95 71.98,50.71,8.74 69.99,50.53,8.51 67.99,50.39,8.27 66.00,50.27,8.01 64.00,50.18,7.74 62.00,50.12,7.46 60.00,50.07,7.17 58.00,50.03,6.87 56.00,50.01,6.56 54.00,50.00,6.25 52.00,50.00,5.94 50.00,50.00,5.62 42.00,50.00,4.32 40.00,50.00,4.00 38.00,50.00,3.68 36.00,50.00,3.37 34.00,50.00,3.07 32.00,50.00,2.77 30.00,50.00,2.48 28.00,50.00,2.20 26.00,50.00,1.93 24.00,50.00,1.68 22.00,50.00,1.43 20.00,50.00,1.20 18.00,50.00,0.99 16.00,50.00,0.80 14.00,50.00,0.62 12.00,50.00,0.46 10.00,50.00,0.33 8.00,50.00,0.21 6.00,50.00,0.12 4.00,50.00,0.05 2.00,50.00,0.01 0.00,50.00">
        <lane id="1#0_0" index="0" disallow="pedestrian tram rail_urban rail rail_electric rail_fast ship container cable_car subway aircraft wheelchair scooter drone" speed="13.89" length="157.44" width="3.00" shape="128.09,106.57,11.47 127.89,105.92,11.44 127.31,104.01,11.36 126.72,102.09,11.29 126.13,100.20,11.22 125.53,98.30,11.16 124.92,96.41,11.11 124.28,94.53,11.06 123.62,92.66,11.01 122.94,90.81,10.98 122.22,88.96,10.94 121.49,87.14,10.92 120.71,85.33,10.89 119.89,83.56,10.88 119.02,81.79,10.86 118.11,80.06,10.85 117.16,78.36,10.84 116.14,76.69,10.83 115.08,75.05,10.82 113.96,73.46,10.81 112.78,71.91,10.80 111.55,70.42,10.79 110.25,68.97,10.77 108.90,67.59,10.76 107.50,66.25,10.74 106.04,64.97,10.72 104.53,63.76,10.69 102.97,62.59,10.66 101.37,61.49,10.62 99.73,60.47,10.58 98.04,59.51,10.53 96.32,58.60,10.47 94.57,57.78,10.40 92.77,57.01,10.33 90.96,56.31,10.24 89.12,55.66,10.15 87.25,55.08,10.04 85.37,54.55,9.92 83.47,54.07,9.80 81.57,53.65,9.65 79.63,53.28,9.50 77.69,52.94,9.33 75.75,52.66,9.15 73.80,52.41,8.95 71.83,52.20,8.74 69.87,52.03,8.51 67.89,51.89,8.27 65.92,51.77,8.01 63.94,51.68,7.74 61.96,51.62,7.46 59.97,51.57,7.17 57.98,51.53,6.87 55.99,51.51,6.56 54.00,51.50,6.25 52.00,51.50,5.94 50.00,51.50,5.62 42.00,51.50,4.32 40.00,51.50,4.00 38.00,51.50,3.68 36.00,51.50,3.37 34.00,51.50,3.07 32.00,51.50,2.77 30.00,51.50,2.48 28.00,51.50,2.20 26.00,51.50,1.93 24.00,51.50,1.68 22.00,51.50,1.43 20.00,51.50,1.20 18.00,51.50,0.99 16.00,51.50,0.80 14.00,51.50,0.62 12.00,51.50,0.46 10.00,51.50,0.33 8.00,51.50,0.21 6.00,51.50,0.12 4.00,51.50,0.05 2.00,51.50,0.01 0.00,51.50" type="driving">
            <param key="origId" value="1_1"/>
        </lane>
    </edge>