<?xml version="1.0" encoding="UTF-8"?>

<!-- generated on 2026-07-10 15:01:52.114073 by Exclipse SUMO sumo 1.27.0 (VIA .XOSC CONVERSION)
-->
<routes xmlns:xsi="http://www.w3.org/2001/XMLSchema-instance" xsi:noNamespaceSchemaLocation="http://sumo.dlr.de/xsd/routes_file.xsd">
	<vehicle id="ego_vehicle" depart="0.0" departSpeed="0.0">
		<route edges="34330#2" />
	</vehicle>
	<vehicle id="other_0" depart="0.0" departSpeed="5.0">
		<route edges="-34303" />
	</vehicle>
</routes>