<?xml version="1.0" encoding="UTF-8"?>

<!-- generated on 2026-06-26 11:42:56.423185 by Exclipse SUMO sumo 1.27.0 (VIA .XOSC CONVERSION)
-->
<routes xmlns:xsi="http://www.w3.org/2001/XMLSchema-instance" xsi:noNamespaceSchemaLocation="http://sumo.dlr.de/xsd/routes_file.xsd">
	<vehicle id="Ego" color="255,255,255" departLane="0" departPos="70.0" depart="0.0" departSpeed="15.0">
		<route edges="-1#6" />
	</vehicle>
	<vehicle id="Target" departLane="0" departPos="55.0" depart="0.0" departSpeed="15.0">
		<route edges="-1#6" />
	</vehicle>
</routes>