<?xml version="1.0" encoding="UTF-8"?>

<!-- generated on 2026-06-29 13:45:28.330548 by Exclipse SUMO sumo 1.27.0 (VIA .XOSC CONVERSION)
-->
<routes xmlns:xsi="http://www.w3.org/2001/XMLSchema-instance" xsi:noNamespaceSchemaLocation="http://sumo.dlr.de/xsd/routes_file.xsd">
	<vehicle id="Car1" departLane="0" departPos="10" depart="0.0" departSpeed="0.0">
		<route edges="-1" />
	</vehicle>
	<vehicle id="Car2" departLane="0" departPos="10" depart="0.0" departSpeed="0.0">
		<route edges="-1" />
	</vehicle>
</routes>